# total energy = -117602.42776 eV

CRYSTAL
PRIMVEC
		10.53762197		0.00015882		0.00568576
		0.00022235		14.03800407		-0.00010588
		-2.43701871		-0.00010588		9.72320362
PRIMECORD
   156 1
Si		8.14470228		0.01193268		0.72334779		-0.00024111		-0.00003198		 0.00007668
Si		-0.04387244		14.02612222		9.00543889		 0.00024111		 0.00003197		-0.00007668
Si		1.17447386		7.03090612		4.14407848		 0.00025357		-0.00004462		-0.00008311
Si		6.92635598		7.00714877		5.58470925		-0.00025356		 0.00004462		 0.00008311
Si		3.60145832		2.66342191		6.54856556		-0.00002212		 0.00032178		-0.00001487
Si		4.49937258		11.37463299		3.18022217		 0.00002213		-0.00032177		 0.00001487
Si		3.28104428		9.68227571		8.04169375		 0.00001606		 0.00032426		 0.00001853
Si		4.81978662		4.35577919		1.68709293		-0.00001605		-0.00032425		-0.00001853
Si		1.20864240		1.75657667		4.15153773		-0.00010156		 0.00005548		 0.00002103
Si		6.89218745		12.28147822		5.57725000		 0.00010156		-0.00005548		-0.00002103
Si		8.11063221		8.77555224		0.71572125		 0.00010912		 0.00005918		-0.00002362
Si		-0.00980237		5.26250265		9.01306648		-0.00010912		-0.00005917		 0.00002361
Si		6.84162763		1.74088208		5.57471100		-0.00031619		 0.00001757		-0.00013220
Si		1.25920327		12.29717281		4.15407673		 0.00031619		-0.00001757		 0.00013220
Si		0.04052875		8.75976553		9.01574525		 0.00031599		 0.00001223		 0.00012302
Si		8.06030216		5.27828936		0.71304249		-0.00031597		-0.00001223		-0.00012303
Mg		4.05030692		0.00002647		4.86444575		 0.00000001		 0.00000001		-0.00000001
Mg		5.26892216		7.01908251		0.00279206		-0.00000000		-0.00000001		-0.00000000
Mg		4.38147097		2.43937348		3.44929077		-0.00038031		-0.00024816		 0.00022304
Mg		3.71935888		11.59868142		6.27949696		 0.00038032		 0.00024817		-0.00022305
Mg		4.93768506		9.45849940		1.41723340		 0.00038192		-0.00026038		-0.00022346
Mg		3.16314584		4.57955550		8.31155433		-0.00038193		 0.00026039		 0.00022347
Mg		5.26881310		0.00008153		0.00284288		0.00000000		0.00000000		0.00000000
Mg		4.05041492		7.01902745		4.86439387		-0.00000001		-0.00000000		 0.00000001
Mg		6.16169911		0.03803315		2.84669806		 0.00022901		-0.00005379		 0.00034314
Mg		1.93913179		14.00002174		6.88208967		-0.00022902		 0.00005379		-0.00034313
Mg		3.15755750		7.05684990		2.02065727		-0.00023093		-0.00004903		-0.00035692
Mg		4.94327341		6.98120500		7.70813047		 0.00023093		 0.00004904		 0.00035692
Mg		0.41733130		0.00188996		1.47671043		 0.00013827		-0.00030577		 0.00011526
Mg		7.68349960		14.03616494		8.25207730		-0.00013828		 0.00030576		-0.00011525
Mg		8.90201743		7.02076176		3.39017691		-0.00012036		-0.00030221		-0.00008145
Mg		-0.80118758		7.01729313		6.33861082		 0.00012035		 0.00030221		 0.00008146
Mg		-0.85874712		0.00399485		6.17549740		 0.00001954		 0.00021859		 0.00019820
Mg		8.95957697		14.03406004		3.55328928		-0.00001955		-0.00021858		-0.00019819
Mg		7.74105597		7.02302442		8.41458721		 0.00000610		 0.00021355		-0.00021770
Mg		0.35977493		7.01503048		1.31420052		-0.00000610		-0.00021357		 0.00021768
Mg		3.17910302		0.03847044		2.09437833		 0.00011403		-0.00002716		-0.00005470
Mg		4.92172789		13.99958446		7.63440940		-0.00011402		 0.00002716		 0.00005471
Mg		6.13986560		7.05769694		2.77316970		-0.00010644		-0.00003253		 0.00007207
Mg		1.96096530		6.98035796		6.95561804		 0.00010645		 0.00003253		-0.00007206
Mg		6.53651748		2.37806896		1.20386933		 0.00033149		 0.00005287		-0.00002915
Mg		1.56431342		11.65998593		8.52491735		-0.00033150		-0.00005287		 0.00002915
Mg		2.78288313		9.39697888		3.66305295		-0.00034286		 0.00006039		 0.00003141
Mg		5.31794777		4.64107601		6.06573372		 0.00034286		-0.00006039		-0.00003141
Mg		-1.63162134		2.43591332		9.43486698		-0.00013605		 0.00028615		-0.00006858
Mg		9.73245224		11.60214157		0.29392075		 0.00013605		-0.00028615		 0.00006859
Mg		8.51412712		9.45465807		5.15327685		 0.00012576		 0.00030140		 0.00009820
Mg		-0.41329727		4.58339683		4.57550983		-0.00012576		-0.00030141		-0.00009820
Mg		0.45721312		2.47779098		7.31691023		 0.00009049		 0.00003015		 0.00011903
Mg		7.64361778		11.56026392		2.41187644		-0.00009050		-0.00003016		-0.00011903
Mg		6.42623287		9.49649655		7.27304097		-0.00010427		 0.00004137		-0.00014631
Mg		1.67459697		4.54155835		2.45574676		 0.00010427		-0.00004137		 0.00014631
Mg		5.98772981		2.46855295		8.71218624		-0.00003728		 0.00014764		-0.00013915
Mg		2.11310109		11.56950195		1.01660044		 0.00003728		-0.00014764		 0.00013915
Mg		0.89423598		9.48750522		5.87906729		 0.00003999		 0.00013354		 0.00011850
Mg		7.20659386		4.55054967		3.84972045		-0.00004000		-0.00013354		-0.00011850
Mg		3.58984329		2.36371481		0.43833366		-0.00037695		-0.00006539		 0.00015320
Mg		4.51098761		11.67434009		9.29045302		 0.00037696		 0.00006539		-0.00015319
Mg		5.72863193		9.38246485		4.42980095		 0.00037255		-0.00005436		-0.00013590
Mg		2.37219792		4.65559004		5.29898678		-0.00037255		 0.00005435		 0.00013590
Mg		9.35907067		2.49232618		1.93570022		 0.00014258		 0.00012990		 0.00002763
Mg		-1.25824082		11.54572871		7.79308752		-0.00014259		-0.00012989		-0.00002764
Mg		-0.03874678		9.51122975		2.93217604		-0.00016271		 0.00012669		-0.00001489
Mg		8.13957769		4.52682514		6.79661169		 0.00016271		-0.00012668		 0.00001488
O		3.61823078		1.05042062		6.52114582		-0.00019459		 0.00025651		 0.00020596
O		4.48260013		12.98763427		3.20764085		 0.00019459		-0.00025652		-0.00020596
O		3.26394995		8.06929560		8.06927655		 0.00019510		 0.00025016		-0.00021788
O		4.83687989		5.96875929		1.65951013		-0.00019510		-0.00025016		 0.00021788
O		5.70433565		1.21762632		4.47657767		-0.00031112		-0.00015571		 0.00009443
O		2.39649420		12.82042858		5.25220900		 0.00031112		 0.00015571		-0.00009443
O		3.61483203		8.23675753		0.39075225		 0.00031088		-0.00016758		-0.00010320
O		4.48599888		5.80129737		9.33803549		-0.00031089		 0.00016759		 0.00010321
O		6.85343643		3.39385306		5.56913007		-0.00003932		-0.00005330		 0.00005933
O		1.24739342		10.64420183		4.15965767		 0.00003932		 0.00005330		-0.00005933
O		0.02874007		10.41272169		9.02089525		 0.00005507		-0.00005929		-0.00005908
O		8.07208978		3.62533321		0.70789248		-0.00005508		 0.00005928		 0.00005908
O		6.48742834		1.20734643		7.10241218		-0.00019385		 0.00024876		-0.00016036
O		1.61340257		12.83070847		2.62637555		 0.00019385		-0.00024876		 0.00016035
O		0.39488792		8.22614729		7.48812771		 0.00018115		 0.00023971		 0.00015024
O		7.70594298		5.81190760		2.24065896		-0.00018115		-0.00023972		-0.00015024
O		1.23003651		3.41096962		4.12995939		 0.00004111		-0.00003124		 0.00011986
O		6.87079333		10.62708527		5.59882729		-0.00004111		 0.00003124		-0.00011986
O		8.08897658		10.42992084		0.73758229		-0.00002115		-0.00002638		-0.00013006
O		0.01185432		3.60813406		8.99120438		 0.00002115		 0.00002640		 0.00013005
O		2.73336623		1.21760620		3.73312645		-0.00015705		 0.00011854		-0.00000893
O		5.36746361		12.82044870		5.99566128		 0.00015705		-0.00011854		 0.00000892
O		6.58585438		8.23652459		1.13403512		 0.00016175		 0.00012041		 0.00001478
O		1.51497546		5.80153031		8.59475262		-0.00016174		-0.00012041		-0.00001479
O		0.79843364		1.20393815		5.66557933		-0.00009717		 0.00017624		-0.00006349
O		7.30239726		12.83411569		4.06320734		 0.00009717		-0.00017625		 0.00006349
O		6.08389638		8.22290525		8.92482715		 0.00009886		 0.00016439		 0.00006318
O		2.01693453		5.81514965		0.80396058		-0.00009886		-0.00016440		-0.00006318
O		0.06637299		1.22629577		3.07475616		-0.00003202		-0.00012124		 0.00013541
O		8.03445791		12.81175913		6.65403051		 0.00003202		 0.00012124		-0.00013540
O		9.25304032		8.24551592		1.79253987		 0.00001945		-0.00013082		-0.00011748
O		-1.15220942		5.79253898		7.93624680		-0.00001945		 0.00013081		 0.00011748
O		3.97504425		3.39844508		5.12574699		-0.00012193		-0.00036764		-0.00019674
O		4.12578666		10.63960982		4.60303968		 0.00012193		 0.00036764		 0.00019673
O		2.90768176		10.41752652		9.46444879		 0.00010895		-0.00037604		 0.00019299
O		5.19314808		3.62052837		0.26433894		-0.00010896		 0.00037604		-0.00019299
O		4.64855114		3.36572075		7.58992710		 0.00007418		 0.00012047		-0.00011699
O		3.45227976		10.67233415		2.13886064		-0.00007419		-0.00012048		 0.00011699
O		2.23380747		10.38472596		7.00060327		-0.00007200		 0.00011586		 0.00011263
O		5.86702344		3.65332894		2.72818446		 0.00007200		-0.00011586		-0.00011262
O		4.85149662		1.19214524		1.67439580		-0.00002366		 0.00005458		 0.00006603
O		3.24933428		12.84590966		8.05439194		 0.00002367		-0.00005458		-0.00006602
O		4.46747517		8.21102233		3.19307600		 0.00003775		 0.00005492		-0.00007031
O		3.63335467		5.82703256		6.53571173		-0.00003776		-0.00005492		 0.00007032
O		4.64669506		1.04857302		9.41609446		 0.00006770		-0.00013322		 0.00041308
O		3.45413478		12.98948188		0.31269222		-0.00006769		 0.00013322		-0.00041308
O		2.23536284		8.06764917		5.17443273		-0.00006349		-0.00013576		-0.00042352
O		5.86546700		5.97040572		4.55435394		 0.00006350		 0.00013576		 0.00042350
O		7.81885765		1.06403362		2.14999074		-0.00011781		-0.00021631		-0.00012854
O		0.28197220		12.97402128		7.57879699		 0.00011781		 0.00021632		 0.00012853
O		1.50039473		8.08284083		2.71737200		 0.00011679		-0.00021667		 0.00012951
O		6.60043512		5.95521406		7.01141573		-0.00011679		 0.00021666		-0.00012952
O		-1.10022446		1.02551130		7.98579864		 0.00041811		-0.00002454		-0.00004686
O		9.20105430		13.01254360		1.74298909		-0.00041811		 0.00002453		 0.00004685
O		7.98242954		8.04479921		6.60431032		-0.00042014		-0.00002088		 0.00003752
O		0.11840031		5.99325569		3.12447635		 0.00042015		 0.00002087		-0.00003752
O		9.61346007		1.12276419		0.27219100		-0.00045074		-0.00042148		 0.00015271
O		-1.51263022		12.91529070		9.45659673		 0.00045074		 0.00042148		-0.00015272
O		-0.29438345		8.14157564		4.59501821		 0.00045904		-0.00041349		-0.00014903
O		8.39521435		5.89647925		5.13376846		-0.00045905		 0.00041350		 0.00014904
O		1.38100233		1.03850489		8.59172868		-0.00027281		-0.00001940		 0.00007441
O		6.71982858		12.99955001		1.13705905		 0.00027281		 0.00001939		-0.00007440
O		5.50127158		8.05745399		5.99866933		 0.00026191		-0.00001448		-0.00007050
O		2.59955933		5.98060091		3.73011840		-0.00026191		 0.00001448		 0.00007049
O		2.01986846		1.03822960		0.71244320		 0.00039389		-0.00016783		-0.00035981
O		6.08096138		12.99982529		9.01634453		-0.00039388		 0.00016783		 0.00035981
O		7.29927803		8.05714376		4.15453625		-0.00038594		-0.00015401		 0.00038091
O		0.80155287		5.98091114		5.57425148		 0.00038593		 0.00015400		-0.00038090
O		2.18384270		3.37168497		6.95333738		-0.00013762		 0.00005917		 0.00000612
O		5.91698821		10.66636993		2.77545035		 0.00013763		-0.00005917		-0.00000611
O		4.69883779		10.39008031		7.63665406		 0.00013324		 0.00007360		 0.00000875
O		3.40199206		3.64797458		2.09213262		-0.00013324		-0.00007361		-0.00000874
O		8.35318740		1.22540849		5.13125805		-0.00019281		 0.00005780		 0.00022389
O		-0.25235650		12.81264640		4.59752863		 0.00019282		-0.00005781		-0.00022389
O		-1.47099715		8.24422948		9.45912197		 0.00019218		 0.00005238		-0.00021529
O		9.57182699		5.79382542		0.26966470		-0.00019217		-0.00005238		 0.00021530
O		-0.84921581		3.45520840		6.19010248		-0.00014043		 0.00000361		-0.00002802
O		8.95004565		10.58284649		3.53868525		 0.00014041		-0.00000362		 0.00002800
O		7.73099843		10.47471549		8.40118492		 0.00016031		-0.00001790		-0.00000097
O		0.36983142		3.56333941		1.32760281		-0.00016028		 0.00001786		 0.00000098
O		8.82417445		3.46278518		3.55422102		-0.00010559		-0.00092822		 0.00028027
O		-0.72334355		10.57526972		6.17456671		 0.00010560		 0.00092823		-0.00028026
O		0.49591649		10.48137004		1.31341595		 0.00009286		-0.00094243		-0.00027920
O		7.60491335		3.55668485		8.41537073		-0.00009287		 0.00094243		 0.00027921
H		-1.26960810		2.65697064		5.80418578		-0.00020270		 0.00033423		 0.00086764
H		9.37043900		11.38108426		3.92460090		 0.00020272		-0.00033422		-0.00086762
H		8.15167554		9.67646290		8.78675011		 0.00020261		 0.00033589		-0.00085414
H		-0.05084569		4.36159200		0.94203762		-0.00020263		-0.00033583		 0.00085412
H		8.67659891		2.66882284		4.11363904		 0.00003273		 0.00056671		-0.00048139
H		-0.57576801		11.36923205		5.61514763		-0.00003273		-0.00056671		 0.00048139
H		0.64293510		9.68745642		0.75378193		-0.00001842		 0.00056439		 0.00048936
H		7.45789474		4.35059848		8.97500474		 0.00001842		-0.00056440		-0.00048936
