# total energy = -7175.1573682 eV	

CRYSTAL	
PRIMVEC	
		3.11199889		0.00000000		-0.24895929	
		-1.55600101		2.69506974		0.12448120	
		-1.02144020		0.00000000		12.76799776	
PRIMCOORD
   12 1	
O		-0.42226299		1.79671399		5.27829060		 0.00025904		 0.00005044		-0.00003571	
O		0.95682286		0.89835700		7.36522846		-0.00025904		-0.00005044		 0.00003571	
O		-0.83329104		1.79671399		10.41613313		 0.00017419		 0.00042364		-0.00027864	
O		1.36785091		0.89835700		2.22738468		-0.00017419		-0.00042364		 0.00027864	
O		0.00000000		0.00000000		0.00000000		0.00000000		0.00000000		0.00000000	
H		-0.34310208		1.79671399		4.28877070		-0.00015330		 0.00048672		 0.00082969	
H		0.87766195		0.89835700		8.35474742		 0.00015330		-0.00048672		-0.00082969	
H		-0.75402680		1.79671399		9.42533635		 0.00011703		-0.00013718		 0.00053115	
H		1.28858698		0.89835700		3.21818177		-0.00011703		 0.00013718		-0.00053115	
Mg		-0.51072010		0.00000000		6.38399951		0.00000000		0.00000000		0.00000000	
Mg		0.63333282		0.89835700		11.40885301		-0.00006892		-0.00018223		 0.00002944	
Mg		-0.09877295		1.79671399		1.23466604		 0.00006892		 0.00018223		-0.00002944	
