# total energy = -7175.14817659 eV	

CRYSTAL	
PRIMVEC	
		3.11200028		0.00000000		-0.37343928	
		-1.55599857		2.69507222		0.18672121	
		-1.53215889		0.00000000		12.76800013	
PRIMCOORD
   12 1	
O		-0.63339496		1.79671387		5.27829069		 0.00013027		-0.00014963		 0.00030082	
O		0.65723496		0.89835678		7.30298854		-0.00013027		 0.00014963		-0.00030082	
O		-1.24993602		1.79671387		10.41613316		-0.00039997		-0.00024709		-0.00003667	
O		1.27377601		0.89835678		2.16514481		 0.00039997		 0.00024709		 0.00003667	
O		0.00000000		0.00000000		0.00000000		0.00000000		0.00000000		0.00000000	
H		-0.51465289		1.79671387		4.28877078		 0.00042266		 0.00052787		 0.00014565	
H		0.53849195		0.89835678		8.29250751		-0.00042266		-0.00052787		-0.00014565	
H		-1.13104006		1.79671387		9.42533633		-0.00002758		-0.00043530		-0.00034271	
H		1.15488006		0.89835678		3.15594165		 0.00002758		 0.00043530		 0.00034271	
Mg		-0.76608007		0.00000000		6.38399944		0.00000000		0.00000000		0.00000000	
Mg		0.17199990		0.89835678		11.34661302		-0.00015749		-0.00029935		 0.00014135	
Mg		-0.14815991		1.79671387		1.23466589		 0.00015749		 0.00029935		-0.00014135	
