# total energy = -7175.1573682 eV	

CRYSTAL	
PRIMVEC	
		3.11199889		0.00000000		0.24895929	
		-1.55600101		2.69506974		-0.12448120	
		1.02144020		0.00000000		12.76799776	
PRIMCOORD
   12 1	
O		0.42226299		1.79671399		5.27829060		-0.00025904		 0.00005044		-0.00003568	
O		2.15517697		0.89835700		7.61418837		 0.00025904		-0.00005044		 0.00003568	
O		0.83329104		1.79671399		10.41613313		-0.00017418		 0.00042363		-0.00027860	
O		1.74414892		0.89835700		2.47634491		 0.00017418		-0.00042363		 0.00027860	
O		0.00000000		0.00000000		0.00000000		0.00000000		0.00000000		0.00000000	
H		0.34310208		1.79671399		4.28877070		 0.00015330		 0.00048671		 0.00082965	
H		2.23433787		0.89835700		8.60370733		-0.00015330		-0.00048671		-0.00082965	
H		0.75402680		1.79671399		9.42533635		-0.00011703		-0.00013718		 0.00053106	
H		1.82341284		0.89835700		3.46714168		 0.00011703		 0.00013718		-0.00053106	
Mg		0.51072010		0.00000000		6.38399951		0.00000000		0.00000000		0.00000000	
Mg		2.47866669		0.89835700		11.65781324		 0.00006888		-0.00018224		 0.00002952	
Mg		0.09877295		1.79671399		1.23466604		-0.00006888		 0.00018224		-0.00002952	
