# total energy = -7175.21655791 eV	

CRYSTAL	
PRIMVEC	
		3.11199981		0.00000000		0.12447987	
		-1.55599835		2.69506949		-0.06223993	
		0.51072002		0.00000000		12.76799734	
PRIMCOORD
   12 1	
O		0.21113210		1.79671372		5.27829055		 0.00062726		 0.00008555		-0.00030406	
O		1.85558783		0.89835702		7.55194828		-0.00062726		-0.00008555		 0.00030406	
O		0.41664503		1.79671372		10.41613293		 0.00012914		 0.00042147		 0.00004584	
O		1.65007489		0.89835702		2.41410465		-0.00012914		-0.00042147		-0.00004584	
O		0.00000000		0.00000000		0.00000000		0.00000000		0.00000000		0.00000000	
H		0.17155100		1.79671372		4.28877059		-0.00046043		 0.00018239		-0.00006393	
H		1.89516893		0.89835702		8.54146699		 0.00046043		-0.00018239		 0.00006393	
H		0.37701286		1.79671372		9.42533603		 0.00041995		 0.00038816		 0.00018162	
H		1.68970582		0.89835702		3.40490155		-0.00041995		-0.00038816		-0.00018162	
Mg		0.25536001		0.00000000		6.38399929		0.00000000		0.00000000		0.00000000	
Mg		2.01733286		0.89835702		11.59557283		-0.00019398		-0.00044945		-0.00086731	
Mg		0.04938706		1.79671372		1.23466600		 0.00019398		 0.00044945		 0.00086731	
