# total energy = -7175.1515221 eV	

CRYSTAL	
PRIMVEC	
		3.11200130		0.00000000		-0.49792159	
		-1.55599907		2.69507221		0.24895922	
		-2.04288068		0.00000000		12.76800109	
PRIMCOORD
   12 1	
O		-0.84452691		1.79671407		5.27829131		-0.00046329		-0.00014880		-0.00004972	
O		0.35764689		0.89835719		7.24074929		 0.00046329		 0.00014880		 0.00004972	
O		-1.66658115		1.79671407		10.41613458		 0.00054171		-0.00015808		-0.00052537	
O		1.17970113		0.89835719		2.10290508		-0.00054171		 0.00015808		 0.00052537	
O		0.00000000		0.00000000		0.00000000		0.00000000		0.00000000		0.00000000	
H		-0.68620309		1.79671407		4.28877114		-0.00016434		 0.00010399		-0.00012160	
H		0.19932307		0.89835719		8.23026852		 0.00016434		-0.00010399		 0.00012160	
H		-1.50805406		1.79671407		9.42533739		-0.00001142		-0.00010173		-0.00008155	
H		1.02117403		0.89835719		3.09370227		 0.00001142		 0.00010173		 0.00008155	
Mg		-1.02144002		0.00000000		6.38400023		0.00000000		0.00000000		0.00000000	
Mg		-0.28933288		0.89835719		11.28437463		-0.00062340		-0.00016872		 0.00015854	
Mg		-0.19754715		1.79671407		1.23466598		 0.00062340		 0.00016872		-0.00015854	
