# total energy = -7175.21655791 eV	

CRYSTAL	
PRIMVEC	
		3.11199981		0.00000000		-0.12447987	
		-1.55599835		2.69506949		0.06223993	
		-0.51072002		0.00000000		12.76799734	
PRIMCOORD
   12 1	
O		-0.21113210		1.79671372		5.27829055		-0.00062725		 0.00008556		-0.00030410	
O		1.25641198		0.89835702		7.42746810		 0.00062725		-0.00008556		 0.00030410	
O		-0.41664503		1.79671372		10.41613293		-0.00012913		 0.00042147		 0.00004587	
O		1.46192492		0.89835702		2.28962478		 0.00012913		-0.00042147		-0.00004587	
O		0.00000000		0.00000000		0.00000000		0.00000000		0.00000000		0.00000000	
H		-0.17155100		1.79671372		4.28877059		 0.00046043		 0.00018239		-0.00006393	
H		1.21683088		0.89835702		8.41698713		-0.00046043		-0.00018239		 0.00006393	
H		-0.37701286		1.79671372		9.42533603		-0.00041995		 0.00038816		 0.00018158	
H		1.42229274		0.89835702		3.28042168		 0.00041995		-0.00038816		-0.00018158	
Mg		-0.25536001		0.00000000		6.38399929		0.00000000		0.00000000		0.00000000	
Mg		1.09466695		0.89835702		11.47109296		 0.00019397		-0.00044947		-0.00086730	
Mg		-0.04938706		1.79671372		1.23466600		-0.00019397		 0.00044947		 0.00086730	
