# total energy = -7175.14817659 eV	

CRYSTAL	
PRIMVEC	
		3.11200028		0.00000000		0.37343928	
		-1.55599857		2.69507222		-0.18672121	
		1.53215889		0.00000000		12.76800013	
PRIMCOORD
   12 1	
O		0.63339496		1.79671387		5.27829069		-0.00013032		-0.00014966		 0.00030083	
O		2.45476469		0.89835678		7.67642845		 0.00013032		 0.00014966		-0.00030083	
O		1.24993602		1.79671387		10.41613316		 0.00039989		-0.00024706		-0.00003671	
O		1.83822395		0.89835678		2.53858472		-0.00039989		 0.00024706		 0.00003671	
O		0.00000000		0.00000000		0.00000000		0.00000000		0.00000000		0.00000000	
H		0.51465289		1.79671387		4.28877078		-0.00042266		 0.00052786		 0.00014564	
H		2.57350676		0.89835678		8.66594742		 0.00042266		-0.00052786		-0.00014564	
H		1.13104006		1.79671387		9.42533633		 0.00002766		-0.00043531		-0.00034287	
H		1.95711897		0.89835678		3.52938187		-0.00002766		 0.00043531		 0.00034287	
Mg		0.76608007		0.00000000		6.38399944		0.00000000		0.00000000		0.00000000	
Mg		2.93999974		0.89835678		11.72005325		 0.00015741		-0.00029939		 0.00014158	
Mg		0.14815991		1.79671387		1.23466589		-0.00015741		 0.00029939		-0.00014158	
