# total energy = -7715.68062535 eV	

CRYSTAL	
PRIMVEC	
		4.32020978		0.00000000		0.00000000	
		0.00000000		4.32020978		0.00000000	
		0.00000000		0.00000000		4.32020978	
PRIMCOORD
   8 1	
Ca		0.00000000		0.00000000		0.00000000		 0.00000003		 0.00000006		0.00000000	
Mg		0.00000000		2.16010489		2.16010489		 0.00000005		-0.00000009		-0.00000004	
Mg		2.16010489		0.00000000		2.16010489		-0.00000006		 0.00000007		-0.00000005	
Mg		2.16010489		2.16010489		0.00000000		-0.00000008		-0.00000009		 0.00000003	
O		0.00000000		0.00000000		2.16010445		 0.00000002		 0.00000003		 0.00000001	
O		2.16010445		0.00000000		0.00000000		 0.00000003		 0.00000002		 0.00000003	
O		0.00000000		2.16010445		0.00000000		 0.00000007		 0.00000004		 0.00000008	
O		2.16010489		2.16010489		2.16010489		-0.00000007		-0.00000003		-0.00000007	
