# total energy = -7715.82516269 eV	

CRYSTAL	
PRIMVEC	
		4.44080359		0.00000000		0.00000000	
		0.00000000		4.44080359		0.00000000	
		0.00000000		0.00000000		4.44080359	
PRIMCOORD
   8 1	
Ca		0.00000000		0.00000000		0.00000000		 0.00000013		 0.00000012		 0.00000013	
Mg		0.00000000		2.22040269		2.22040269		 0.00000005		-0.00000009		-0.00000001	
Mg		2.22040313		0.00000000		2.22040269		-0.00000005		 0.00000008		-0.00000002	
Mg		2.22040313		2.22040313		0.00000000		-0.00000007		-0.00000010		 0.00000001	
O		0.00000000		0.00000000		2.22040313		 0.00000003		 0.00000004		-0.00000021	
O		2.22040269		0.00000000		0.00000000		-0.00000010		0.00000000		 0.00000007	
O		0.00000000		2.22040269		0.00000000		 0.00000007		-0.00000000		 0.00000009	
O		2.22040313		2.22040269		2.22040269		-0.00000006		-0.00000004		-0.00000007	
