# total energy = -7715.79423026 eV	

CRYSTAL	
PRIMVEC	
		4.36341619		0.00000000		0.00000000	
		0.00000000		4.36341619		0.00000000	
		0.00000000		0.00000000		4.36341619	
PRIMCOORD
   8 1	
Ca		0.00000000		0.00000000		0.00000000		 0.00000003		 0.00000006		0.00000000	
Mg		0.00000000		2.18170810		2.18170765		 0.00000005		-0.00000008		-0.00000003	
Mg		2.18170765		0.00000000		2.18170765		-0.00000006		 0.00000006		-0.00000005	
Mg		2.18170765		2.18170810		0.00000000		-0.00000007		-0.00000009		 0.00000003	
O		0.00000000		0.00000000		2.18170765		 0.00000002		 0.00000003		 0.00000001	
O		2.18170765		0.00000000		0.00000000		 0.00000003		 0.00000002		 0.00000003	
O		0.00000000		2.18170765		0.00000000		 0.00000006		 0.00000003		 0.00000007	
O		2.18170765		2.18170765		2.18170765		-0.00000006		-0.00000003		-0.00000007	
