# total energy = -7715.57269688 eV	

CRYSTAL	
PRIMVEC	
		4.54414241		0.00000000		0.00000000	
		0.00000000		4.54414685		0.00000000	
		0.00000000		0.00000000		4.54414241	
PRIMCOORD
   8 1	
Ca		0.00000000		0.00000000		0.00000000		 0.00000002		 0.00000003		0.00000000	
Mg		0.00000000		2.27207298		2.27207254		 0.00000002		-0.00000004		-0.00000001	
Mg		2.27207254		0.00000000		2.27207254		-0.00000003		 0.00000003		-0.00000003	
Mg		2.27207254		2.27207298		0.00000000		-0.00000003		-0.00000004		 0.00000001	
O		0.00000000		0.00000000		2.27207254		 0.00000001		 0.00000001		 0.00000001	
O		2.27207254		0.00000000		0.00000000		 0.00000002		0.00000000		 0.00000001	
O		0.00000000		2.27207254		0.00000000		 0.00000003		 0.00000003		 0.00000004	
O		2.27207254		2.27207298		2.27207254		-0.00000004		-0.00000002		-0.00000004	
