# total energy = -49447.0205855 eV	

CRYSTAL	
PRIMVEC	
		14.02400034		0.00000000		0.56095945	
		0.00000000		5.10900053		0.00000000	
		0.34932245		0.00000000		8.73300518	
PRIMCOORD
   70 1	
Mg		2.42940580		1.67524039		0.14338656		 0.00004150		-0.00024938		 0.00042169	
Mg		11.59829703		3.43375873		0.51014355		 0.00016405		 0.00075101		 0.00037146	
Mg		9.61606579		0.87925847		4.79036747		 0.00004150		 0.00024938		 0.00042169	
Mg		4.76095668		4.22974066		4.59616361		 0.00016405		-0.00075101		 0.00037146	
Mg		2.55046093		4.27010172		1.62959226		-0.00003405		-0.00033263		 0.00005837	
Mg		11.59594051		0.83889740		1.99141027		-0.00033101		 0.00009615		-0.00025079	
Mg		9.73712092		3.39339766		6.27657177		-0.00003405		 0.00033263		 0.00005837	
Mg		4.75860157		1.71560146		6.07743032		-0.00033101		-0.00009615		-0.00025079	
Mg		4.65702592		1.76822509		3.01299002		 0.00007295		-0.00002192		 0.00036218	
Mg		9.59347331		3.34077543		3.21044864		 0.00004282		 0.00044547		 0.00000775	
Mg		11.84368591		0.78627517		7.65996953		 0.00007295		 0.00002192		 0.00036218	
Mg		2.75613436		4.32272535		7.29646730		 0.00004282		-0.00044547		 0.00000775	
Mg		0.28944682		2.55450026		7.23616360		-0.00020065		-0.00022671		 0.00028311	
Mg		7.12678717		0.00000000		3.15014354		-0.00020065		 0.00022671		 0.00028311	
Mg		0.06532270		2.55450026		1.63307159		 0.00031396		 0.00009763		-0.00009078	
Mg		7.25198269		0.00000000		6.28005110		 0.00031396		-0.00009763		-0.00009078	
Mg		0.23142525		0.00000000		5.78561295		 0.00009851		-0.00026249		 0.00032690	
Mg		7.06876419		2.55450026		1.69959289		 0.00009851		 0.00026249		 0.00032690	
Mg		0.12069021		0.00000000		3.01725111		-0.00000068		-0.00013474		-0.00051082	
Mg		7.30735020		2.55450026		7.66423062		-0.00000068		 0.00013474		-0.00051082	
Si		0.00269055		0.00000000		0.06724412		-0.00021018		 0.00035634		-0.00000716	
Si		7.18935054		2.55450026		4.71422363		-0.00021018		-0.00035634		-0.00000716	
Si		5.28321964		0.07203714		0.25579599		 0.00005581		-0.00022238		-0.00017953	
Si		8.74434283		5.03696338		0.39424075		 0.00020521		 0.00006263		 0.00010839	
Si		12.46987963		2.48246312		4.90277551		 0.00005581		 0.00022238		-0.00017953	
Si		1.90700249		2.62653740		4.48026081		 0.00020521		-0.00006263		 0.00010839	
O		6.17125152		3.62125937		8.91007485		 0.00014673		-0.00028266		-0.00023028	
O		8.54691649		1.48774116		9.00510168		 0.00011773		-0.00016050		-0.00075717	
O		13.00859187		4.04224142		4.82405479		 0.00014673		 0.00028266		-0.00023028	
O		1.36025650		1.06675911		4.35812217		 0.00011773		 0.00016050		-0.00075717	
O		1.09982607		3.54104812		0.08758816		-0.00008858		 0.00028035		 0.00019646	
O		12.92766763		1.56795241		0.56070261		 0.00008079		-0.00035905		-0.00027647	
O		8.28648606		4.12245127		4.73456767		-0.00008858		-0.00028035		 0.00019646	
O		6.09032728		0.98654786		4.64672126		 0.00008079		 0.00035905		-0.00027647	
O		3.61953725		0.11239821		3.15371831		-0.00044067		-0.00006281		 0.00022443	
O		10.64556140		4.99660232		3.43475944		 0.00013917		-0.00035186		 0.00034620	
O		10.80619864		2.44210205		7.80069782		-0.00044067		 0.00006281		 0.00022443	
O		3.80822246		2.66689847		7.52077810		 0.00013917		 0.00035186		 0.00034620	
O		3.63551494		2.61580748		1.55790319		-0.00012111		-0.00011553		-0.00006092	
O		10.50166537		2.49319164		1.83254848		 0.00021316		 0.00016578		 0.00016696	
O		10.82217493		5.04769190		6.20488270		-0.00012111		 0.00011553		-0.00006092	
O		3.66432502		0.06130862		5.91856854		 0.00021316		-0.00016578		 0.00016696	
O		1.11930555		0.73569647		1.37965457		-0.00012242		 0.00013050		 0.00025526	
O		13.01165716		4.37330406		1.85534869		 0.00005008		-0.00004716		 0.00025371	
O		8.30596554		1.81880379		6.02663548		-0.00012242		-0.00013050		 0.00025526	
O		6.17431681		3.29019533		5.94136874		 0.00005008		 0.00004716		 0.00025371	
O		6.15393347		3.30552319		3.40157318		 0.00005368		-0.00039180		-0.00036529	
O		8.12290283		1.80347734		3.48033178		-0.00063277		-0.00027263		-0.00005260	
O		13.34059487		4.35797760		8.04855269		 0.00005368		 0.00039180		-0.00036529	
O		1.28556389		0.75102292		7.56635184		-0.00063277		 0.00027263		-0.00005260	
O		5.86880388		0.78167723		1.62892559		 0.00015903		-0.00041452		-0.00008523	
O		8.26690834		4.32732329		1.72484926		 0.00022854		-0.00009711		 0.00003221	
O		13.05546387		1.77282303		6.27590510		 0.00015903		 0.00041452		-0.00008523	
O		1.42956800		3.33617750		5.81086932		 0.00022854		 0.00009711		 0.00003221	
O		1.36826218		3.49966529		3.08807982		 0.00022633		-0.00004785		 0.00021244	
O		12.89879438		1.60933524		3.54930083		-0.00023772		-0.00015321		-0.00015927	
O		8.55492217		4.16383550		7.73505933		 0.00022633		 0.00004785		 0.00021244	
O		6.06145544		0.94516503		7.63532089		-0.00023772		 0.00015321		-0.00015927	
O		3.64587994		0.02452233		0.20686783		-0.00008100		-0.00001946		-0.00010905	
O		10.38301026		5.08447680		0.47635378		 0.00030609		-0.00012366		 0.00022110	
O		10.83253993		2.52997653		4.85384875		-0.00008100		 0.00001946		-0.00010905	
O		3.54566992		2.57902259		4.56237383		 0.00030609		 0.00012366		 0.00022110	
H		4.24213235		3.06540032		1.04158835		-0.00015516		-0.00020650		 0.00017520	
H		9.85173248		2.04360021		1.26597213		-0.00020867		 0.00018048		-0.00002512	
H		11.42879234		4.59810047		5.68856787		-0.00015516		 0.00020650		 0.00017520	
H		3.01439214		0.51090005		5.35199219		-0.00020867		-0.00018048		-0.00002512	
H		3.94367351		0.91961953		4.08130844		 0.00050558		-0.00025001		-0.00047125	
H		10.39471423		4.18937959		4.33935147		-0.00035706		 0.00076982		-0.00039211	
H		11.13033350		1.63487933		8.72828935		 0.00050558		 0.00025001		-0.00047125	
H		3.55737388		3.47411980		8.42537153		-0.00035706		-0.00076982		-0.00039211	
