# total energy = -49447.0205889 eV	

CRYSTAL	
PRIMVEC	
		14.02400034		0.00000000		-0.56095945	
		0.00000000		5.10900053		0.00000000	
		-0.34932245		0.00000000		8.73300518	
PRIMCOORD
   70 1	
Mg		2.42570331		1.67524039		-0.05081730		-0.00016378		-0.00075084		 0.00037131	
Mg		11.59459313		3.43375873		-0.41757289		-0.00004148		 0.00024943		 0.00042150	
Mg		9.26304225		0.87925847		4.03520135		-0.00016378		 0.00075084		 0.00037131	
Mg		4.40793455		4.22974066		4.22940662		-0.00004148		-0.00024943		 0.00042150	
Mg		2.42805842		4.27010172		1.43045081		 0.00033091		-0.00009617		-0.00025092	
Mg		11.47353941		0.83889740		1.06863141		 0.00003395		 0.00033260		 0.00005815	
Mg		9.26539876		3.39339766		5.51647087		 0.00033091		 0.00009617		-0.00025092	
Mg		4.28687942		1.71560146		5.71561232		 0.00003395		-0.00033260		 0.00005815	
Mg		4.43052703		1.76822509		2.64948779		-0.00004294		-0.00044540		 0.00000754	
Mg		9.36697442		3.34077543		2.45203057		-0.00007299		 0.00002192		 0.00036230	
Mg		11.26786738		0.78627517		6.73550785		-0.00004294		 0.00044540		 0.00000754	
Mg		2.18031443		4.32272535		7.09901008		-0.00007299		-0.00002192		 0.00036230	
Mg		-0.28944682		2.55450026		7.23616360		 0.00020047		 0.00022663		 0.00028335	
Mg		6.89721457		0.00000000		2.58918408		 0.00020047		-0.00022663		 0.00028335	
Mg		-0.06532270		2.55450026		1.63307159		-0.00031391		-0.00009771		-0.00009073	
Mg		6.77201625		0.00000000		5.71909025		-0.00031391		 0.00009771		-0.00009073	
Mg		-0.23142525		0.00000000		5.78561295		-0.00009864		 0.00026230		 0.00032722	
Mg		6.95523615		2.55450026		1.13863344		-0.00009864		-0.00026230		 0.00032722	
Mg		-0.12069021		0.00000000		3.01725111		 0.00000077		 0.00013474		-0.00051093	
Mg		6.71665013		2.55450026		7.10327117		 0.00000077		-0.00013474		-0.00051093	
Si		-0.00269055		0.00000000		0.06724412		 0.00021034		-0.00035636		-0.00000723	
Si		6.83464979		2.55450026		4.15326418		 0.00021034		 0.00035636		-0.00000723	
Si		5.27965751		0.07203714		-0.16671870		-0.00020525		-0.00006280		 0.00010842	
Si		8.74077929		5.03696338		-0.30516346		-0.00005581		 0.00022251		-0.00017950	
Si		12.11699645		2.48246312		3.91930136		-0.00020525		 0.00006280		 0.00010842	
Si		1.55411930		2.62653740		4.34181605		-0.00005581		-0.00022251		-0.00017950	
O		5.47708245		3.62125937		8.44414222		-0.00011765		 0.00016062		-0.00075723	
O		7.85274741		1.48774116		8.34911540		-0.00014672		 0.00028252		-0.00023025	
O		12.66374244		4.04224142		3.79716131		-0.00011765		-0.00016062		-0.00075723	
O		1.01540847		1.06675911		4.26309534		-0.00014672		-0.00028252		-0.00023025	
O		1.09633271		3.54104812		-0.00025825		-0.00008093		 0.00035896		-0.00027671	
O		12.92417426		1.56795241		-0.47337129		 0.00008843		-0.00028050		 0.00019642	
O		7.93367305		4.12245127		4.08576181		-0.00008093		-0.00035896		-0.00027671	
O		5.73751427		0.98654786		4.17360822		 0.00008843		 0.00028050		 0.00019642	
O		3.37843753		0.11239821		2.87379859		-0.00013870		 0.00035167		 0.00034612	
O		10.40446028		4.99660232		2.59275745		 0.00044082		 0.00006307		 0.00022489	
O		10.21577787		2.44210205		6.95981724		-0.00013870		-0.00035167		 0.00034612	
O		3.21780169		2.66689847		7.23973837		 0.00044082		-0.00006307		 0.00022489	
O		3.52233497		2.61580748		1.27158903		-0.00021304		-0.00016569		 0.00016711	
O		10.38848540		2.49319164		0.99694234		 0.00012120		 0.00011534		-0.00006080	
O		10.35967531		5.04769190		5.35760909		-0.00021304		 0.00016569		 0.00016711	
O		3.20182541		0.06130862		5.64392325		 0.00012120		-0.00011534		-0.00006080	
O		1.01234318		0.73569647		1.29438923		-0.00005022		 0.00004709		 0.00025375	
O		12.90469619		4.37330406		0.81869511		 0.00012250		-0.00013030		 0.00025518	
O		7.84968352		1.81880379		5.38040929		-0.00005022		-0.00004709		 0.00025375	
O		5.71803480		3.29019533		5.46567462		 0.00012250		 0.00013030		 0.00025518	
O		5.90109610		3.30552319		2.91937233		 0.00063292		 0.00027259		-0.00005252	
O		7.87006546		1.80347734		2.84061232		-0.00005393		 0.00039200		-0.00036551	
O		12.73843645		4.35797760		7.00539239		 0.00063292		-0.00027259		-0.00005252	
O		0.68340547		0.75102292		7.48759324		-0.00005393		-0.00039200		-0.00036551	
O		5.75709199		0.78167723		1.16388841		-0.00022835		 0.00009703		 0.00003221	
O		8.15519646		4.32732329		1.06796473		-0.00015907		 0.00041440		-0.00008542	
O		12.59443234		1.77282303		5.24990847		-0.00022835		-0.00009703		 0.00003221	
O		0.96853647		3.33617750		5.71494424		-0.00015907		-0.00041440		-0.00008542	
O		1.12520455		3.49966529		2.98834137		 0.00023773		 0.00015321		-0.00015922	
O		12.65573815		1.60933524		2.52712037		-0.00022636		 0.00004810		 0.00021262	
O		7.96254489		4.16383550		7.07436143		 0.00023773		-0.00015321		-0.00015922	
O		5.46907816		0.94516503		7.17409988		-0.00022636		-0.00004810		 0.00021262	
O		3.64099008		0.02452233		-0.08460568		-0.00030626		 0.00012356		 0.00022116	
O		10.37812039		5.08447680		-0.35409162		 0.00008122		 0.00001944		-0.00010912	
O		10.47832902		2.52997653		4.00141438		-0.00030626		-0.00012356		 0.00022116	
O		3.19146040		2.57902259		4.29288930		 0.00008122		-0.00001944		-0.00010912	
H		4.17226786		3.06540032		0.70501268		 0.00020850		-0.00018034		-0.00002514	
H		9.78186799		2.04360021		0.48062750		 0.00015517		 0.00020658		 0.00017520	
H		11.00960820		4.59810047		4.79103134		 0.00020850		 0.00018034		-0.00002514	
H		2.59520800		0.51090005		5.12760841		 0.00015517		-0.00020658		 0.00017520	
H		3.62928611		0.91961953		3.77839061		 0.00035684		-0.00076985		-0.00039189	
H		10.08032542		4.18937959		3.52034899		-0.00050572		 0.00024998		-0.00047131	
H		10.46662645		1.63487933		7.86441067		 0.00035684		 0.00076985		-0.00039189	
H		2.89366543		3.47411980		8.16732850		-0.00050572		-0.00024998		-0.00047131	
