# total energy = -22469.4671667 eV

CRYSTAL
PRIMVEC
		9.63988760		0.00000000		0.05297423
		0.00000000		8.73024831		0.00000000
		-1.39323487		0.00000000		4.99358317
PRIMECORD
   40 1
Mg		-0.34830726		7.94651510		1.24839579		-0.00000004		-0.00013008		 0.00000011
Mg		-1.04492275		0.78373126		3.74518738		 0.00000021		 0.00013028		-0.00000007
Mg		4.47163557		3.58138023		1.27488193		-0.00000007		-0.00008525		 0.00000007
Mg		3.77502105		5.14886711		3.77167352		 0.00000017		 0.00008525		-0.00000002
Ca		-0.34830726		2.65840730		1.24839579		 0.00000010		-0.00006391		 0.00000022
Ca		-1.04492177		6.07183907		3.74518738		-0.00000004		 0.00006392		-0.00000010
Ca		4.47163654		7.02354606		1.27488193		 0.00000013		-0.00012558		 0.00000025
Ca		3.77502105		1.70670127		3.77167352		-0.00000014		 0.00012553		-0.00000023
Si		2.44070942		0.83328296		1.16666023		 0.00024540		 0.00080222		-0.00016826
Si		5.80594818		7.89696535		3.87989522		-0.00024822		-0.00080506		 0.00016672
Si		6.50256074		0.83328393		1.38310266		-0.00024242		 0.00079916		 0.00017008
Si		1.74409588		7.89696341		3.66345182		 0.00024416		-0.00080106		-0.00016903
Si		7.26086262		5.19851036		1.19323305		-0.00057386		 0.00038330		-0.00050345
Si		0.98579497		3.53173698		3.85332240		 0.00057365		-0.00038273		 0.00050351
Si		1.68240949		5.19851036		1.35653081		 0.00057393		 0.00038217		 0.00050369
Si		6.56424811		3.53173601		3.69002561		-0.00057574		-0.00037994		-0.00050476
O		0.90694918		0.78100609		0.71585627		-0.00032930		-0.00051661		-0.00021002
O		7.33970647		7.94924125		4.33069919		 0.00033080		 0.00051691		 0.00021046
O		8.03632293		0.78100609		1.83390760		 0.00032712		-0.00051641		 0.00020921
O		0.21033467		7.94924125		3.21264785		-0.00032813		 0.00051660		-0.00020949
O		5.72675857		5.14611077		0.74229663		 0.00019493		-0.00045315		-0.00004579
O		2.51989902		3.58413657		4.30425785		-0.00019475		 0.00045289		 0.00004587
O		3.21651354		5.14611077		1.80746626		-0.00019518		-0.00045300		 0.00004567
O		5.03014308		3.58413754		3.23908822		 0.00019608		 0.00045260		-0.00004541
O		3.02124814		2.22972706		1.65512080		 0.00013938		 0.00019493		-0.00038113
O		5.22540849		6.50051930		3.39143368		-0.00013828		-0.00019253		 0.00038187
O		5.92202397		2.22972706		0.89464210		-0.00014043		 0.00019738		 0.00038028
O		2.32463265		6.50052028		4.15191336		 0.00013972		-0.00019562		-0.00038082
O		7.84112084		6.59474603		1.68156993		 0.00040520		 0.00061612		-0.00024213
O		0.40553579		2.13550131		3.36498553		-0.00040526		-0.00061666		 0.00024196
O		1.10215127		6.59474506		0.86819394		-0.00040542		 0.00061684		 0.00024178
O		7.14450535		2.13550228		4.17836151		 0.00040606		-0.00061855		-0.00024129
O		2.03014113		0.20235103		4.96588833		 0.00020812		-0.00000348		-0.00035868
O		6.21651549		8.52789630		0.08066712		-0.00020812		 0.00000383		 0.00035898
O		5.51990000		0.20235103		2.57745870		-0.00020786		-0.00000302		 0.00035838
O		2.72675662		8.52789630		2.46909675		 0.00020798		 0.00000335		-0.00035856
O		6.85005376		4.56746935		4.99236376		 0.00032913		 0.00001277		-0.00031521
O		1.39660286		4.16277799		0.05419169		-0.00032898		-0.00001311		 0.00031497
O		0.69998737		4.56746837		2.55098328		-0.00032893		 0.00001324		 0.00031485
O		7.54666925		4.16277897		2.49557120		 0.00032889		-0.00001358		-0.00031448
