# total energy = -22469.7743199 eV

CRYSTAL
PRIMVEC
		9.69395267		0.00000000		0.03338769
		0.00000000		8.79909825		0.00000000
		-1.41132150		0.00000000		5.02237373
PRIMECORD
   40 1
Mg		-0.35283037		8.00290212		1.25559441		-0.00000026		 0.00003713		 0.00000021
Mg		-1.05849210		0.79619321		3.76678127		 0.00000013		-0.00003680		-0.00000025
Mg		4.49414499		3.60334618		1.27228630		-0.00000024		 0.00007451		 0.00000015
Mg		3.78848327		5.19575013		3.78347511		 0.00000011		-0.00007445		-0.00000023
Ca		-0.35283037		2.66802915		1.25559343		 0.00000014		 0.00014900		 0.00000033
Ca		-1.05849210		6.13106716		3.76678224		-0.00000020		-0.00014908		-0.00000037
Ca		4.49414499		7.06758996		1.27228728		 0.00000017		 0.00009627		 0.00000031
Ca		3.78848327		1.73150634		3.78347414		-0.00000019		-0.00009626		-0.00000034
Si		2.45147666		0.83475463		1.17021132		 0.00052923		 0.00047475		-0.00013058
Si		5.83115063		7.96434168		3.88555009		-0.00052980		-0.00047494		 0.00013037
Si		6.53681040		0.83475658		1.37436128		-0.00052521		 0.00046995		 0.00013308
Si		1.74581688		7.96433973		3.68140014		 0.00052671		-0.00047093		-0.00013234
Si		7.29862344		5.23439239		1.18697530		-0.00012967		 0.00012549		-0.00039972
Si		0.98400384		3.56470392		3.86878612		 0.00012952		-0.00012558		 0.00039959
Si		1.68966459		5.23439336		1.35759731		 0.00013363		 0.00012083		 0.00040211
Si		6.59296269		3.56470392		3.69816313		-0.00013256		-0.00012159		-0.00040161
O		0.91290501		0.78358030		0.71959631		-0.00031245		-0.00045803		-0.00026058
O		7.36972228		8.01551601		4.33616511		 0.00031294		 0.00045799		 0.00026073
O		8.07538497		0.78358127		1.82497727		 0.00031002		-0.00045754		 0.00025966
O		0.20724329		8.01551601		3.23078415		-0.00031084		 0.00045761		-0.00025997
O		5.75977031		5.18311384		0.73625412		 0.00010256		-0.00040687		-0.00013055
O		2.52285697		3.61598247		4.31950730		-0.00010235		 0.00040672		 0.00013061
O		3.22851967		5.18311384		1.80831946		-0.00010481		-0.00040638		 0.00012968
O		5.05410859		3.61598344		3.24744196		 0.00010428		 0.00040633		-0.00012983
O		3.04269593		2.23340477		1.65024608		 0.00003339		 0.00019356		-0.00031982
O		5.23993135		6.56569251		3.40551534		-0.00003328		-0.00019322		 0.00031990
O		5.94559307		2.23340380		0.89432848		-0.00003505		 0.00019727		 0.00031846
O		2.33703421		6.56569251		4.16143294		 0.00003459		-0.00019630		-0.00031877
O		7.88961383		6.63286235		1.66690876		 0.00025244		 0.00054006		-0.00020749
O		0.39301443		2.16623396		3.38885169		-0.00025231		-0.00054016		 0.00020755
O		1.09867615		6.63286040		0.87766482		-0.00025400		 0.00054351		 0.00020633
O		7.18395113		2.16623591		4.17809659		 0.00025355		-0.00054300		-0.00020646
O		2.02064784		0.19085234		4.99812479		-0.00000300		 0.00007359		-0.00022634
O		6.26197944		8.60824493		0.05763662		 0.00000299		-0.00007360		 0.00022623
O		5.55631674		0.19085137		2.56882349		 0.00000318		 0.00007447		 0.00022557
O		2.72631054		8.60824493		2.48693793		-0.00000330		-0.00007444		-0.00022559
O		6.86759788		4.59039660		5.01480890		 0.00009413		 0.00008573		-0.00019045
O		1.41502940		4.20869970		0.04095252		-0.00009420		-0.00008567		 0.00019043
O		0.70936768		4.59039563		2.55214035		-0.00009395		 0.00008662		 0.00018970
O		7.57325961		4.20870068		2.50362106		 0.00009392		-0.00008653		-0.00018974
