# total energy = -22469.5786262 eV

CRYSTAL
PRIMVEC
		10.07531063		0.00000000		-0.16588657
		0.00000000		9.17611230		0.00000000
		-1.57090648		0.00000000		5.18282554
PRIMECORD
   40 1
Mg		-0.39272808		8.29302149		1.29570639		 0.00000012		 0.00032208		-0.00000014
Mg		-1.17818035		0.88309179		3.88712111		-0.00000029		-0.00032223		 0.00000009
Mg		4.64492626		3.70496924		1.21276407		 0.00000019		 0.00034229		-0.00000022
Mg		3.85947205		5.47114307		3.80417782		-0.00000026		-0.00034216		 0.00000017
Ca		-0.39272711		2.68449022		1.29570736		-0.00000020		-0.00017793		-0.00000031
Ca		-1.17818132		6.49162306		3.88712013		 0.00000019		 0.00017786		 0.00000033
Ca		4.64492626		7.27254247		1.21276407		-0.00000015		-0.00016459		-0.00000039
Ca		3.85947302		1.90356983		3.80417782		 0.00000010		 0.00016461		 0.00000024
Si		2.50040112		0.83822294		1.20502880		 0.00043918		-0.00059656		-0.00025046
Si		6.00399719		8.33789034		3.81191309		-0.00043869		 0.00059661		 0.00025062
Si		6.78945237		0.83822196		1.22049934		-0.00044032		-0.00059461		 0.00024971
Si		1.71494593		8.33789229		3.79644158		 0.00044267		 0.00059176		-0.00024861
Si		7.53802234		5.42625668		1.12207383		 0.00055650		-0.00052205		-0.00020600
Si		0.96637693		3.74985464		3.89486709		-0.00055587		 0.00052323		 0.00020637
Si		1.75183212		5.42625571		1.30345334		-0.00055981		-0.00051824		 0.00020439
Si		6.75256716		3.74985562		3.71348758		 0.00055938		 0.00051919		-0.00020463
O		0.94406426		0.80377849		0.72749618		 0.00015117		 0.00020024		 0.00039626
O		7.56033502		8.37233382		4.28944571		-0.00015142		-0.00020024		-0.00039637
O		8.34578924		0.80377849		1.69803197		-0.00015022		 0.00019993		-0.00039594
O		0.15861004		8.37233479		3.31890895		 0.00014915		-0.00019979		 0.00039562
O		5.98173613		5.39184048		0.64456069		 0.00008888		 0.00019043		 0.00037405
O		2.52266218		3.78427182		4.37238121		-0.00008912		-0.00019059		-0.00037407
O		3.30811542		5.39184048		1.78096746		-0.00008688		 0.00019006		-0.00037335
O		5.19628386		3.78427085		3.23597443		 0.00008718		-0.00019012		 0.00037337
O		3.17067364		2.25205240		1.58566505		-0.00002897		-0.00022086		 0.00012320
O		5.33372564		6.92405990		3.43127685		 0.00002883		 0.00022065		-0.00012325
O		6.11917888		2.25205338		0.83986310		 0.00002959		-0.00022206		-0.00012286
O		2.38521943		6.92405892		4.17707879		-0.00003062		 0.00022441		 0.00012243
O		8.20834551		6.84012803		1.50272663		-0.00007550		-0.00029109		 0.00010598
O		0.29605377		2.33598427		3.51421526		 0.00007514		 0.00029032		-0.00010610
O		1.08150603		6.84012998		0.92280054		 0.00007689		-0.00029382		-0.00010530
O		7.42289227		2.33598329		4.09414135		-0.00007665		 0.00029327		 0.00010534
O		1.88532153		0.05096980		5.24015244		 0.00000113		-0.00027225		-0.00003689
O		6.61907678		9.12514250		-0.22321055		-0.00000129		 0.00027247		 0.00003704
O		5.83362353		0.05096980		2.36820320		-0.00000133		-0.00027300		 0.00003753
O		2.67077477		9.12514250		2.64873870		 0.00000144		 0.00027326		-0.00003783
O		6.92298074		4.63902498		5.15721111		-0.00002124		-0.00027229		-0.00004386
O		1.58141756		4.53708733		-0.14026921		 0.00002136		 0.00027203		 0.00004360
O		0.79596432		4.63902595		2.45114356		 0.00002086		-0.00027299		 0.00004447
O		7.70843495		4.53708635		2.56579736		-0.00002108		 0.00027274		-0.00004421
