# total energy = -24713.5777152 eV	

CRYSTAL	
PRIMVEC	
		9.53869699		0.76309385		0.00000000	
		0.69280826		8.66010320		0.00000000	
		-1.68715078		-0.13497321		4.98419082	
PRIMCOORD
   40 1	
Mg		0.20464924		7.79671962		1.24604818		-0.00069589		-0.00014601		-0.00004598	
Mg		-1.19899272		0.72840750		3.73814264		 0.00069589		 0.00014601		 0.00004598	
Mg		4.62759457		3.84821781		1.24604818		-0.00069552		-0.00014351		-0.00004772	
Mg		3.91676085		5.44000602		3.73814264		 0.00069552		 0.00014351		 0.00004772	
Mg		-0.22392156		2.43958169		1.24604818		 0.00008756		-0.00025668		-0.00046542	
Mg		-0.77042192		6.08554543		3.73814264		-0.00008756		 0.00025668		 0.00046542	
Mg		4.89183202		7.15118022		1.24604818		 0.00009140		-0.00025967		-0.00046308	
Mg		3.65252340		2.13704362		3.73814264		-0.00009140		 0.00025967		 0.00046308	
Si		2.43668606		0.98639341		1.22461610		-0.00008327		-0.00014027		 0.00023936	
Si		6.10766936		8.30183043		3.75957472		 0.00008327		 0.00014027		-0.00023936	
Si		6.38588642		1.30232929		1.26748026		 0.00003934		-0.00037577		-0.00026841	
Si		2.15846900		7.98589455		3.71671056		-0.00003934		 0.00037577		 0.00026841	
Si		7.55243964		5.69799098		1.22461610		-0.00018199		-0.00018985		 0.00019304	
Si		0.99191578		3.59023286		3.75957472		 0.00018199		 0.00018985		-0.00019304	
Si		1.96294110		5.25083109		1.26748026		 0.00005751		-0.00038564		-0.00026778	
Si		6.58141432		4.03739274		3.71671056		-0.00005751		 0.00038564		 0.00026778	
O		0.90241050		0.78465989		0.68781793		-0.00017815		-0.00013548		-0.00001054	
O		7.64194492		8.50356394		4.29637289		 0.00017815		 0.00013548		 0.00001054	
O		7.90744263		1.34506331		1.80427652		 0.00038366		 0.00044501		 0.00005701	
O		0.63691279		7.94316053		3.17991430		-0.00038366		-0.00044501		-0.00005701	
O		6.01816408		5.49625746		0.68781793		-0.00011196		-0.00013501		 0.00001554	
O		2.52619134		3.79196542		4.29637289		 0.00011196		 0.00013501		-0.00001554	
O		3.48449635		5.29356511		1.80427652		 0.00037051		 0.00044753		 0.00005389	
O		5.05985907		3.99465872		3.17991430		-0.00037051		-0.00044753		-0.00005389	
O		3.11046219		2.46626151		1.58447353		 0.00008048		 0.00000556		-0.00022832	
O		5.43389323		6.82196137		3.39971729		-0.00008048		-0.00000556		 0.00022832	
O		5.94173508		2.69276388		0.90762092		 0.00008118		-0.00052275		 0.00017190	
O		2.60262129		6.59545996		4.07656990		-0.00008118		 0.00052275		-0.00017190	
O		8.22621576		7.17786003		1.58447353		 0.00011053		 0.00005526		-0.00020901	
O		0.31813966		2.11036380		3.39971729		-0.00011053		-0.00005526		 0.00020901	
O		1.51878880		6.64126473		0.90762092		 0.00007293		-0.00051597		 0.00016756	
O		7.02556662		2.64695815		4.07656990		-0.00007293		 0.00051597		-0.00016756	
O		3.34053577		0.32317304		0.12859153		 0.00036456		 0.00090495		 0.00005130	
O		5.20381869		8.96504984		4.85559929		-0.00036456		-0.00090495		-0.00005130	
O		5.36359425		0.48501841		2.36350388		-0.00031992		 0.00013180		-0.00008217	
O		3.18076117		8.80320543		2.62068790		 0.00031992		-0.00013180		 0.00008217	
O		8.45628935		5.03477061		0.12859153		 0.00037255		 0.00090130		 0.00004873	
O		0.08806607		4.25345227		4.85559929		-0.00037255		-0.00090130		-0.00004873	
O		0.94064797		4.43352022		2.36350388		-0.00032852		 0.00013373		-0.00008454	
O		7.60370745		4.85470362		2.62068790		 0.00032852		-0.00013373		 0.00008454	
