# total energy = -20634.3495302 eV

CRYSTAL
PRIMVEC
		10.36274958		0.00000000		0.00000000
		0.00000000		5.76999969		0.00000000
		0.00000000		0.00000000		4.70000434
PRIMECORD
   28 1
Si		8.72543514		2.88499984		4.11343956		 0.00028486		-0.00000000		 0.00049041
Si		1.63731443		2.88499984		0.58655961		-0.00028486		-0.00000000		-0.00049041
Si		3.34302301		0.00000000		4.14728015		 0.00020942		0.00000000		 0.00004581
Si		7.01972656		0.00000000		0.55272005		-0.00020942		0.00000000		-0.00004581
Mg		5.18137479		2.88499984		0.00000000		0.00000000		0.00000000		0.00000000
Mg		0.00000000		0.00000000		2.35000010		0.00000000		0.00000000		0.00000000
Mg		0.00000000		2.88499984		2.35000010		0.00000000		0.00000000		0.00000000
Mg		5.18137479		0.00000000		2.35000010		0.00000000		0.00000000		0.00000000
Mg		2.57203341		1.45807928		2.34529956		-0.00016848		 0.00001244		 0.00016360
Mg		7.79071513		4.31192041		2.35469961		 0.00016848		-0.00001244		-0.00016360
Mg		7.79071513		1.45807928		2.35469961		 0.00016848		 0.00001244		-0.00016360
Mg		2.57203341		4.31192041		2.34529956		-0.00016848		-0.00001244		 0.00016360
O		3.26841122		2.88499984		0.98935035		-0.00066531		-0.00000000		 0.00008818
O		7.09433732		2.88499984		3.71064984		 0.00066531		-0.00000000		-0.00008818
O		1.70156244		2.88499984		3.64578939		 0.00024716		0.00000000		 0.00004292
O		8.66118610		2.88499984		1.05420977		-0.00024716		0.00000000		-0.00004292
O		8.60626352		0.00000000		1.09697994		 0.00020342		0.00000000		-0.00085747
O		1.75648605		0.00000000		3.60302025		-0.00020342		0.00000000		 0.00085747
O		3.45079561		0.00000000		1.08522962		 0.00038508		0.00000000		-0.00036751
O		6.91195397		0.00000000		3.61476954		-0.00038508		0.00000000		 0.00036751
O		0.88186999		1.50077692		1.07488967		 0.00028850		 0.00006490		-0.00038999
O		9.48087959		4.26922277		3.62510949		-0.00028850		-0.00006490		 0.00038999
O		9.48087959		1.50077692		3.62510949		-0.00028850		 0.00006490		 0.00038999
O		0.88186999		4.26922277		1.07488967		 0.00028850		-0.00006490		-0.00038999
O		6.14718305		1.31613655		1.03869984		-0.00002174		-0.00003986		-0.00021948
O		4.21556549		4.45386314		3.66130036		 0.00002174		 0.00003986		 0.00021948
O		4.21556549		1.31613655		3.66130036		 0.00002174		-0.00003986		 0.00021948
O		6.14718305		4.45386314		1.03869984		-0.00002174		 0.00003986		-0.00021948
