# total energy = -20634.4116966 eV

CRYSTAL
PRIMVEC
		11.12099965		0.00000000		0.00000000
		0.00000000		5.76999722		0.00000000
		0.00000000		0.00000000		4.70000136
PRIMECORD
   28 1
Si		9.36388170		2.88499972		4.11343980		 0.00004151		-0.00000000		-0.00055648
Si		1.75711794		2.88499972		0.58656044		-0.00004151		-0.00000000		 0.00055648
Si		3.58763449		0.00000000		4.14727989		 0.00034697		-0.00000000		 0.00006856
Si		7.53336516		0.00000000		0.55272036		-0.00034697		-0.00000000		-0.00006856
Mg		5.56049982		2.88499972		0.00000000		0.00000000		0.00000000		0.00000000
Mg		0.00000000		0.00000000		2.34999957		0.00000000		0.00000000		0.00000000
Mg		0.00000000		2.88499972		2.34999957		0.00000000		0.00000000		0.00000000
Mg		5.56049982		0.00000000		2.34999957		0.00000000		0.00000000		0.00000000
Mg		2.76023211		1.45807871		2.34529983		-0.00085129		 0.00012300		-0.00003330
Mg		8.36076754		4.31192073		2.35470041		 0.00085129		-0.00012300		 0.00003330
Mg		8.36076754		1.45807871		2.35470041		 0.00085129		 0.00012300		 0.00003330
Mg		2.76023211		4.31192073		2.34529983		-0.00085129		-0.00012300		-0.00003330
O		3.50756329		2.88499972		0.98934971		-0.00078201		0.00000000		-0.00015500
O		7.61343525		2.88499972		3.71064942		 0.00078201		0.00000000		 0.00015500
O		1.82606814		2.88499972		3.64578953		 0.00008340		0.00000000		 0.00003919
O		9.29493039		2.88499972		1.05420960		-0.00008340		0.00000000		-0.00003919
O		9.23599021		0.00000000		1.09697985		-0.00035827		0.00000000		-0.00030261
O		1.88500944		0.00000000		3.60302039		 0.00035827		0.00000000		 0.00030261
O		3.70329288		0.00000000		1.08523052		 0.00011360		0.00000000		 0.00028683
O		7.41770677		0.00000000		3.61476973		-0.00011360		0.00000000		-0.00028683
O		0.94639707		1.50077668		1.07489021		-0.00034760		 0.00018780		 0.00022010
O		10.17460258		4.26922276		3.62511003		 0.00034760		-0.00018780		-0.00022010
O		10.17460258		1.50077668		3.62511003		 0.00034760		 0.00018780		-0.00022010
O		0.94639707		4.26922276		1.07489021		-0.00034760		-0.00018780		 0.00022010
O		6.59697699		1.31613695		1.03870026		 0.00024043		 0.00027821		-0.00003460
O		4.52402154		4.45386249		3.66129999		-0.00024043		-0.00027821		 0.00003460
O		4.52402154		1.31613695		3.66129999		-0.00024043		 0.00027821		 0.00003460
O		6.59697699		4.45386249		1.03870026		 0.00024043		-0.00027821		-0.00003460
