# total energy = -20634.4990301 eV

CRYSTAL
PRIMVEC
		10.61549995		0.00000000		0.00000000
		0.00000000		5.77000192		0.00000000
		0.00000000		0.00000000		4.70000199
PRIMECORD
   28 1
Si		8.93825096		2.88499990		4.11344042		-0.00000611		0.00000000		-0.00024560
Si		1.67724899		2.88499990		0.58656051		 0.00000611		0.00000000		 0.00024560
Si		3.42456028		0.00000000		4.14728051		 0.00026343		0.00000000		 0.00004040
Si		7.19093861		0.00000000		0.55272042		-0.00026343		0.00000000		-0.00004040
Mg		5.30774998		2.88499990		0.00000000		0.00000000		0.00000000		0.00000000
Mg		0.00000000		0.00000000		2.34999993		0.00000000		0.00000000		0.00000000
Mg		0.00000000		2.88499990		2.34999993		0.00000000		0.00000000		0.00000000
Mg		5.30774998		0.00000000		2.34999993		0.00000000		0.00000000		0.00000000
Mg		2.63476709		1.45807926		2.34530045		-0.00043377		-0.00005025		-0.00001299
Mg		7.98073286		4.31192054		2.35470048		 0.00043377		 0.00005025		 0.00001299
Mg		7.98073286		1.45807926		2.35470048		 0.00043377		-0.00005025		 0.00001299
Mg		2.63476709		4.31192054		2.34530045		-0.00043377		 0.00005025		-0.00001299
O		3.34812869		2.88499990		0.98934973		-0.00063607		0.00000000		-0.00002062
O		7.26737127		2.88499990		3.71065013		 0.00063607		0.00000000		 0.00002062
O		1.74306509		2.88499990		3.64579049		 0.00002912		-0.00000000		-0.00058640
O		8.87243486		2.88499990		1.05421044		-0.00002912		-0.00000000		 0.00058640
O		8.81617271		0.00000000		1.09698029		-0.00027125		-0.00000000		-0.00048590
O		1.79932724		0.00000000		3.60301958		 0.00027125		-0.00000000		 0.00048590
O		3.53496148		0.00000000		1.08522999		 0.00025198		-0.00000000		 0.00048803
O		7.08053847		0.00000000		3.61476987		-0.00025198		-0.00000000		-0.00048803
O		0.90337905		1.50077692		1.07489049		-0.00031492		-0.00009867		 0.00012984
O		9.71212091		4.26922288		3.62511043		 0.00031492		 0.00009867		-0.00012984
O		9.71212091		1.50077692		3.62511043		 0.00031492		-0.00009867		-0.00012984
O		0.90337905		4.26922288		1.07489049		-0.00031492		 0.00009867		 0.00012984
O		6.29711457		1.31613728		1.03870013		 0.00008111		 0.00032059		 0.00001711
O		4.31838538		4.45386251		3.66129973		-0.00008111		-0.00032059		-0.00001711
O		4.31838538		1.31613728		3.66129973		-0.00008111		 0.00032059		-0.00001711
O		6.29711457		4.45386251		1.03870013		 0.00008111		-0.00032059		 0.00001711
