# total energy = -20634.5079371 eV

CRYSTAL
PRIMVEC
		10.86824980		0.00000000		0.00000000
		0.00000000		5.76999729		0.00000000
		0.00000000		0.00000000		4.69999636
PRIMECORD
   28 1
Si		9.15106633		2.88499973		4.11344018		-0.00003438		-0.00000000		-0.00050631
Si		1.71718347		2.88499973		0.58656053		 0.00003438		-0.00000000		 0.00050631
Si		3.50609739		0.00000000		4.14727956		 0.00028748		-0.00000000		-0.00009123
Si		7.36215133		0.00000000		0.55272006		-0.00028748		-0.00000000		 0.00009123
Mg		5.43412490		2.88499973		0.00000000		0.00000000		0.00000000		0.00000000
Mg		0.00000000		0.00000000		2.35000035		0.00000000		0.00000000		0.00000000
Mg		0.00000000		2.88499973		2.35000035		0.00000000		0.00000000		0.00000000
Mg		5.43412490		0.00000000		2.35000035		0.00000000		0.00000000		0.00000000
Mg		2.69749960		1.45807896		2.34529984		-0.00067981		 0.00002616		-0.00004743
Mg		8.17075020		4.31192051		2.35469979		 0.00067981		-0.00002616		 0.00004743
Mg		8.17075020		1.45807896		2.35469979		 0.00067981		 0.00002616		 0.00004743
Mg		2.69749960		4.31192051		2.34529984		-0.00067981		-0.00002616		-0.00004743
O		3.42784599		2.88499973		0.98934982		-0.00093727		0.00000000		-0.00007730
O		7.44040381		2.88499973		3.71064980		 0.00093727		0.00000000		 0.00007730
O		1.78456662		2.88499973		3.64579026		-0.00002037		0.00000000		-0.00027455
O		9.08368318		2.88499973		1.05421045		 0.00002037		0.00000000		 0.00027455
O		9.02608037		0.00000000		1.09698027		-0.00047737		0.00000000		-0.00047803
O		1.84216834		0.00000000		3.60302044		 0.00047737		0.00000000		 0.00047803
O		3.61912718		0.00000000		1.08522952		 0.00017312		-0.00000000		 0.00049573
O		7.24912153		0.00000000		3.61477010		-0.00017312		-0.00000000		-0.00049573
O		0.92488806		1.50077705		1.07488947		-0.00033840		 0.00005938		 0.00022026
O		9.94336174		4.26922241		3.62511016		 0.00033840		-0.00005938		-0.00022026
O		9.94336174		1.50077705		3.62511016		 0.00033840		 0.00005938		-0.00022026
O		0.92488806		4.26922241		1.07488947		-0.00033840		-0.00005938		 0.00022026
O		6.44704578		1.31613744		1.03870037		 0.00020512		 0.00031657		-0.00001489
O		4.42120402		4.45386311		3.66130034		-0.00020512		-0.00031657		 0.00001489
O		4.42120402		1.31613744		3.66130034		-0.00020512		 0.00031657		 0.00001489
O		6.44704578		4.45386311		1.03870037		 0.00020512		-0.00031657		-0.00001489
