# total energy = -24716.5218339 eV

CRYSTAL
PRIMVEC
		9.31089269		0.00004519		-0.00000904
		0.00004519		8.99587451		-0.00000904
		0.00000000		0.00000000		5.32894220
PRIMECORD
   40 1
O		1.12182753		0.79996412		0.33943794		-0.00005921		 0.00013515		-0.00017207
O		1.12182572		8.19591311		3.00390181		 0.00005466		-0.00012855		-0.00016765
O		5.77730280		5.29792397		2.32502593		-0.00007969		 0.00012690		 0.00017215
O		5.77724766		3.69800206		4.98949794		 0.00006397		-0.00013622		 0.00016988
O		3.52907220		2.19411772		0.46847869		 0.00013240		 0.00002096		-0.00026330
O		3.52906135		6.80183995		3.13294166		 0.00023229		-0.00018902		-0.00024879
O		8.18455109		6.69210107		2.19597704		 0.00009435		-0.00004901		 0.00027116
O		8.18448058		2.30392891		4.86045899		 0.00024215		-0.00020422		 0.00024682
O		3.29029166		8.69539919		1.49173051		-0.00015829		 0.00005624		 0.00028207
O		3.29025279		0.30051148		4.15621697		-0.00016856		-0.00009083		 0.00025294
O		7.94571450		4.19749357		1.17273156		-0.00015195		 0.00003201		-0.00030441
O		7.94572264		4.79847767		3.83717916		-0.00017073		-0.00010976		-0.00023656
O		8.19703304		8.17362655		4.79861867		 0.00007718		 0.00008390		 0.00027814
O		8.19700502		0.82231214		2.13415571		 0.00005832		-0.00005935		 0.00027298
O		3.54157766		3.67567212		3.19477746		 0.00004642		 0.00007547		-0.00027670
O		3.54159031		5.32022861		0.53030455		 0.00003432		-0.00006644		-0.00027220
O		5.78619265		6.82026957		5.11711234		-0.00003500		-0.00005215		-0.00006198
O		5.78618180		2.17562845		2.45263853		-0.00006713		 0.00012823		-0.00004282
O		1.13074269		2.32233412		2.87629915		-0.00007819		-0.00012052		 0.00004530
O		1.13076619		6.67353587		0.21182896		-0.00008379		 0.00015057		 0.00003390
O		6.05497453		8.72580276		3.28534552		-0.00004174		-0.00009061		-0.00027348
O		6.05493386		0.27010610		0.62085544		-0.00003820		 0.00014797		-0.00019895
O		1.39950740		4.22785105		4.70806326		-0.00004570		-0.00011545		 0.00024275
O		1.39950921		4.76802437		2.04360120		-0.00003797		 0.00012878		 0.00021536
Si		2.75549654		0.79169705		0.34761100		-0.00003222		 0.00021812		 0.00025353
Si		2.75559687		8.20413227		3.01207306		-0.00023486		-0.00001438		 0.00026327
Si		7.41094469		5.28961894		2.31684564		 0.00002092		 0.00031912		-0.00024480
Si		7.41102423		3.70620857		4.98132578		-0.00024967		 0.00002006		-0.00027023
Si		6.55801565		8.19727980		4.77483435		 0.00014552		-0.00016238		-0.00021121
Si		6.55797046		0.79869685		2.11038043		 0.00017779		 0.00002004		-0.00024667
Si		1.90252863		3.69928831		3.21855635		 0.00020726		-0.00006317		 0.00023024
Si		1.90253225		5.29661332		0.55407350		 0.00022279		 0.00001587		 0.00026433
Mg		9.31272760		0.91046860		3.88756344		 0.00003515		-0.00039663		-0.00013342
Mg		9.31276738		8.08549630		1.22308330		 0.00002278		 0.00037820		-0.00011887
Mg		4.65730295		5.40837874		4.10583540		 0.00003085		-0.00039073		 0.00013510
Mg		4.65730024		3.58753555		1.44137153		 0.00001815		 0.00038603		 0.00011910
Mg		-0.01371216		2.28257156		1.23315727		-0.00003515		-0.00015076		 0.00018339
Mg		-0.01368595		6.71329663		3.89763470		-0.00005488		 0.00014754		 0.00015491
Mg		4.64175949		6.78052961		1.43130479		-0.00003898		-0.00015054		-0.00018362
Mg		4.64174141		2.21538287		4.09577047		-0.00005537		 0.00014957		-0.00015957
