# total energy = -24716.5944933 eV

CRYSTAL
PRIMVEC
		9.17700703		0.00000000		0.00000000
		0.00000000		8.81853838		0.00000000
		0.00000000		0.00000000		5.16604135
PRIMECORD
   40 1
O		1.10646575		0.76152216		0.30045273		-0.00037750		-0.00056822		-0.00028171
O		1.10646575		8.05701984		2.88347431		-0.00037789		 0.00056827		-0.00028178
O		5.69496926		5.17079225		2.28256704		-0.00038015		-0.00056842		 0.00028191
O		5.69497016		3.64774794		4.86558772		-0.00038094		 0.00056859		 0.00028196
O		3.46289407		2.17645280		0.54921052		 0.00015204		-0.00014301		 0.00064109
O		3.46289407		6.64208829		3.13223119		 0.00015169		 0.00014361		 0.00064098
O		8.05139849		6.58572380		2.03381016		 0.00015025		-0.00014554		-0.00064063
O		8.05139849		2.23281639		4.61683083		 0.00014939		 0.00014693		-0.00064040
O		3.29229832		8.46119419		1.41810966		 0.00007049		 0.00004082		-0.00044804
O		3.29229832		0.35734691		4.00112943		 0.00007047		-0.00004093		-0.00044805
O		7.88080183		4.05192319		1.16491101		 0.00006982		 0.00004100		 0.00044801
O		7.88080183		4.76661790		3.74793169		 0.00006990		-0.00004065		 0.00044774
O		8.06476536		8.01266366		4.52577286		 0.00048442		 0.00058683		-0.00057041
O		8.06476536		0.80587743		1.94275218		 0.00048449		-0.00058685		-0.00057041
O		3.47626094		3.60339266		3.22328917		 0.00048648		 0.00058693		 0.00057038
O		3.47626094		5.21514933		0.64026940		 0.00048650		-0.00058700		 0.00057031
O		5.70213899		6.69992523		4.96647832		-0.00043302		 0.00011102		-0.00026033
O		5.70213899		2.11861586		2.38345764		-0.00043294		-0.00011126		-0.00026055
O		1.11363548		2.29065423		2.78258371		-0.00043144		 0.00011291		 0.00026105
O		1.11363548		6.52788686		0.19956303		-0.00043157		-0.00011291		 0.00026102
O		5.92465566		8.37629629		2.89456245		-0.00015996		-0.00030372		-0.00007628
O		5.92465566		0.44224481		0.31154178		-0.00015993		 0.00030350		-0.00007640
O		1.33615215		3.96702529		4.85449958		-0.00015932		-0.00030344		 0.00007638
O		1.33615215		4.85151580		2.27147980		-0.00015940		 0.00030358		 0.00007642
Si		2.72514629		0.78152727		0.35381446		-0.00024090		 0.00014213		-0.00043015
Si		2.72514539		8.03701473		2.93683514		-0.00024022		-0.00014263		-0.00043020
Si		7.31364800		5.19079736		2.22920621		-0.00023655		 0.00014459		 0.00042999
Si		7.31364800		3.62774463		4.81222689		-0.00023507		-0.00014647		 0.00042989
Si		6.43919167		8.02840869		4.45291852		 0.00008932		 0.00007196		 0.00027135
Si		6.43919167		0.79013240		1.86989784		 0.00008929		-0.00007156		 0.00027145
Si		1.85068907		3.61913770		3.29614351		 0.00008571		 0.00006994		-0.00027203
Si		1.85068907		5.19940340		0.71312374		 0.00008577		-0.00006996		-0.00027211
Mg		9.15398017		0.85210016		3.69374018		 0.00030422		-0.00027031		-0.00005307
Mg		9.15397927		7.96644093		1.11072040		 0.00030427		 0.00027024		-0.00005311
Mg		4.56547666		5.26137116		4.05532185		 0.00030414		-0.00026999		 0.00005287
Mg		4.56547576		3.55717084		1.47230118		 0.00030418		 0.00026990		 0.00005305
Mg		0.05020260		2.31004108		1.10832416		 0.00011090		-0.00000403		-0.00018537
Mg		0.05020260		6.50850001		3.69134484		 0.00011097		 0.00000409		-0.00018525
Mg		4.63870612		6.71931208		1.47469651		 0.00011099		-0.00000365		 0.00018524
Mg		4.63870612		2.09922901		4.05771719		 0.00011106		 0.00000371		 0.00018523
