# total energy = -10069.2217994 eV	

CRYSTAL	
PRIMVEC	
		4.82861177		0.00000000		0.00000000	
		0.00000000		4.82861177		0.00000000	
		0.00000000		0.00000000		4.82861177	
PRIMCOORD
   12 1	
Mg		0.00000000		0.00000000		0.00000000		0.00000000		0.00000000		-0.00000000	
Mg		2.41430589		0.00000000		2.41430589		-0.00000000		0.00000000		-0.00000000	
Mg		0.00000000		2.41430589		2.41430589		0.00000000		-0.00000000		-0.00000000	
Mg		2.41430589		2.41430589		0.00000000		-0.00000000		0.00000000		-0.00000000	
O		0.43179619		2.84610208		4.39681558		-0.00008783		-0.00008783		 0.00008783	
O		4.39681558		1.98250969		0.43179619		 0.00008783		 0.00008783		-0.00008783	
O		1.98250969		1.98250969		1.98250969		 0.00008783		 0.00008783		 0.00008783	
O		2.84610208		2.84610208		2.84610208		-0.00008783		-0.00008783		-0.00008783	
O		4.39681558		0.43179619		2.84610208		 0.00008783		-0.00008783		-0.00008783	
O		0.43179619		4.39681558		1.98250969		-0.00008783		 0.00008783		 0.00008783	
O		2.84610208		4.39681558		0.43179619		-0.00008783		 0.00008783		-0.00008783	
O		1.98250969		0.43179619		4.39681558		 0.00008783		-0.00008783		 0.00008783	
