# total energy = -24716.2484786 eV	

CRYSTAL	
PRIMVEC	
		9.47124454		-0.00009943		0.00000000	
		-0.00009039		9.04997293		0.00000000	
		0.00000000		0.00000000		5.43099251	
PRIMCOORD
   40 1	
O		1.13247999		0.85750820		0.38212371		-0.00003771		 0.00050609		 0.00024930	
O		1.13248180		8.19243761		3.09761815		-0.00026250		-0.00050618		 0.00024962	
O		5.86805797		5.38244766		2.33337526		-0.00003237		 0.00050630		-0.00025007	
O		5.86815288		3.66740234		5.04886970		-0.00025870		-0.00050534		-0.00025054	
O		3.60257102		2.18927643		0.33996220		 0.00007116		-0.00029794		-0.00002436	
O		3.60259452		6.86050758		3.05545936		-0.00013584		 0.00062874		-0.00002886	
O		8.33814809		6.71421318		2.37553315		 0.00007669		-0.00029072		 0.00002424	
O		8.33826560		2.33547502		5.09102669		-0.00013196		 0.00062412		 0.00002862	
O		3.27289249		8.84140253		1.54320490		-0.00006738		 0.00012804		-0.00002463	
O		3.27297384		0.20846735		4.25866680		-0.00004279		-0.00003209		 0.00007102	
O		8.00856357		4.31636906		1.17229045		-0.00006723		 0.00013045		 0.00002718	
O		8.00855272		4.73340591		3.88781834		-0.00004252		-0.00003231		-0.00007031	
O		8.34607891		8.18686688		5.04526314		 0.00000286		 0.00015778		 0.00007254	
O		8.34611507		0.86294154		2.32976689		 0.00011647		-0.00017791		 0.00007814	
O		3.61050274		3.66193284		3.10122110		 0.00000386		 0.00015786		-0.00007172	
O		3.61044670		5.38796958		0.38572846		 0.00011446		-0.00017715		-0.00007767	
O		5.87259916		6.86155158		5.09695176		 0.00067003		 0.00033040		-0.00041849	
O		5.87260910		2.18836440		2.38145731		 0.00078006		-0.00052882		-0.00041827	
O		1.13702389		2.33660851		3.04953700		 0.00067436		 0.00033889		 0.00041623	
O		1.13694164		6.71339877		0.33404165		 0.00078012		-0.00053023		 0.00041640	
O		6.20920970		9.25666954		3.88907748		-0.00031717		-0.00007633		-0.00021789	
O		6.20931184		-0.20680056		1.17361467		-0.00033339		-0.00000319		-0.00030813	
O		1.47363172		4.73171923		4.25741761		-0.00031838		-0.00006949		 0.00022558	
O		1.47364076		4.31824285		1.54189243		-0.00033396		-0.00000696		 0.00031276	
Si		2.77036298		0.80484518		0.31886969		-0.00038771		-0.00040334		 0.00005252	
Si		2.77014876		8.24521000		3.03439397		 0.00002143		-0.00002537		-0.00003231	
Si		7.50594638		5.32978825		2.39662656		-0.00039766		-0.00041432		-0.00005392	
Si		7.50582345		3.72017383		5.11209028		 0.00001418		-0.00001960		 0.00003173	
Si		6.70902389		8.24357214		5.11404632		 0.00000892		 0.00047854		-0.00001554	
Si		6.70916851		0.80616758		2.39853108		-0.00019992		-0.00019187		 0.00004336	
Si		1.97344862		3.71863810		3.03244968		 0.00000421		 0.00046655		 0.00000888	
Si		1.97349834		5.33119924		0.31697421		-0.00019785		-0.00019030		-0.00004822	
Mg		9.47521176		0.96707353		4.06977160		 0.00003457		-0.00003703		 0.00031002	
Mg		9.47512769		8.08270054		1.35429071		 0.00006254		 0.00005023		 0.00027063	
Mg		4.73954248		5.49210970		4.07671445		 0.00003482		-0.00003782		-0.00030961	
Mg		4.73955062		3.55775747		1.36120554		 0.00006298		 0.00005048		-0.00027033	
Mg		0.00320523		2.31380763		1.35451759		-0.00001010		-0.00005356		 0.00016719	
Mg		0.00314828		6.73616077		4.06999215		 0.00002559		 0.00005358		 0.00022440	
Mg		4.73878050		6.83874077		1.36097595		-0.00001003		-0.00005350		-0.00016596	
Mg		4.73881756		2.21113183		4.07649209		 0.00002586		 0.00005330		-0.00022354	
