# total energy = -24716.09219 eV	

CRYSTAL	
PRIMVEC	
		9.08548716		0.00000000		-0.00004519	
		0.00000000		8.69427021		0.00000000	
		-0.00002712		0.00000000		5.08031548	
PRIMCOORD
   40 1	
O		1.09170596		0.73992256		0.26701657		-0.00081925		 0.00023072		 0.00012389	
O		1.09169421		7.95434404		2.80717431		-0.00081863		-0.00023122		 0.00012380	
O		5.63424255		5.08704050		2.27311767		-0.00004644		 0.00029884		-0.00015363	
O		5.63423261		3.60722610		4.81327541		-0.00004922		-0.00029844		-0.00015362	
O		3.41890759		2.15616567		0.58888359		 0.00005296		-0.00015764		-0.00049217	
O		3.41889493		6.53810183		3.12904043		 0.00005425		 0.00015512		-0.00049157	
O		7.96150564		6.50306938		1.95127053		 0.00060737		 0.00073359		 0.00031493	
O		7.96149479		2.19119541		4.49142737		 0.00060422		-0.00072813		 0.00031609	
O		3.27828064		8.30589875		1.36705649		-0.00036737		-0.00021069		-0.00052221	
O		3.27826889		0.38836785		3.90721333		-0.00036767		 0.00020977		-0.00052299	
O		7.82098264		3.95876726		1.17303707		-0.00020752		-0.00021980		 0.00057798	
O		7.82097089		4.73549934		3.71319391		-0.00020703		 0.00022128		 0.00057691	
O		7.98151617		7.90126793		4.39839347		 0.00075403		 0.00018750		 0.00014585	
O		7.98152792		0.79299866		1.85823573		 0.00075358		-0.00018817		 0.00014586	
O		3.43892987		3.55414367		3.22202371		 0.00016176		 0.00014253		-0.00013201	
O		3.43894162		5.14012292		0.68186597		 0.00016103		-0.00014217		-0.00013206	
O		5.65242630		6.59914129		4.89359506		 0.00009483		-0.00027766		-0.00031428	
O		5.65243715		2.09512621		2.35343732		 0.00009502		 0.00027710		-0.00031438	
O		1.10978848		2.25214448		2.72689353		-0.00028937		-0.00081041		 0.00013679	
O		1.10980023		6.44212121		0.18673669		-0.00029059		 0.00081223		 0.00013619	
O		5.83881680		8.21084644		2.76277293		-0.00001663		-0.00016154		-0.00033508	
O		5.83882855		0.48342016		0.22261519		-0.00001650		 0.00016079		-0.00033548	
O		1.29610125		3.86372760		4.85766775		-0.00016241		-0.00021031		 0.00032253	
O		1.29611300		4.83053900		2.31751091		-0.00016269		 0.00021127		 0.00032213	
Si		2.69898652		0.76993837		0.34486495		 0.00069891		 0.00076291		-0.00024326	
Si		2.69897477		7.92432733		2.88502269		 0.00069714		-0.00075934		-0.00024305	
Si		7.24206635		5.11730126		2.19522409		-0.00064760		-0.00013878		 0.00033621	
Si		7.24205370		3.57696715		4.73538093		-0.00064231		 0.00013175		 0.00033607	
Si		6.36652535		7.90829214		4.32754308		-0.00046849		-0.00041422		 0.00002233	
Si		6.36653710		0.78597446		1.78738534		-0.00046798		 0.00041568		 0.00002209	
Si		1.82353591		3.56102778		3.29284427		 0.00051144		 0.00009536		 0.00016273	
Si		1.82354766		5.13323973		0.75268744		 0.00051299		-0.00009820		 0.00016301	
Mg		9.05462078		0.82578402		3.59342084		 0.00005767		 0.00015072		 0.00009412	
Mg		9.05463253		7.86848168		1.05326400		 0.00005761		-0.00015034		 0.00009425	
Mg		4.51186726		5.17294082		4.02698640		 0.00009161		 0.00005118		-0.00008381	
Mg		4.51187901		3.52132578		1.48682866		 0.00009168		-0.00005128		-0.00008365	
Mg		0.08187255		2.30533357		1.04903646		 0.00001705		-0.00040440		-0.00019457	
Mg		0.08186080		6.38893303		3.58919330		 0.00001729		 0.00040451		-0.00019422	
Mg		4.62462245		6.65248585		1.49109054		-0.00002234		-0.00049948		 0.00023407	
Mg		4.62461070		2.04178075		4.03124738		-0.00002239		 0.00049939		 0.00023419	
