# total energy = -24716.3860525 eV	

CRYSTAL	
PRIMVEC	
		9.12176066		0.00000000		0.00000000	
		0.00000000		8.75499421		0.00000000	
		0.00000000		0.00000000		5.12039440	
PRIMCOORD
   40 1	
O		1.09826376		0.74932041		0.27892093		-0.00030382		-0.00017214		 0.00016201	
O		1.09826285		8.00566928		2.83911542		-0.00030450		 0.00017253		 0.00016203	
O		5.65913505		5.12681481		2.28127356		-0.00026509		-0.00016927		-0.00016347	
O		5.65913415		3.62817489		4.84146896		-0.00026450		 0.00016889		-0.00016336	
O		3.43929324		2.16555900		0.57482704		-0.00059520		-0.00032062		-0.00014092	
O		3.43929324		6.58942979		3.13502244		-0.00059635		 0.00032292		-0.00014136	
O		8.00016815		6.54304255		1.98536745		-0.00056828		-0.00027786		 0.00013304	
O		8.00016724		2.21194715		4.54556284		-0.00056714		 0.00027590		 0.00013267	
O		3.28260038		8.37953044		1.38984742		 0.00047969		-0.00068093		-0.00037619	
O		3.28260038		0.37545835		3.95004191		 0.00047992		 0.00068195		-0.00037533	
O		7.84348071		4.00203514		1.17034526		 0.00048784		-0.00068222		 0.00037801	
O		7.84348071		4.75295455		3.73053975		 0.00048762		 0.00068144		 0.00037871	
O		8.01391014		7.96103018		4.45050330		 0.00003944		-0.00068315		 0.00070374	
O		8.01391104		0.79395861		1.89030790		 0.00004016		 0.00068346		 0.00070368	
O		3.45303614		3.58353579		3.23007927		 0.00000986		-0.00068574		-0.00070313	
O		3.45303614		5.17145300		0.66988387		 0.00001045		 0.00068550		-0.00070312	
O		5.67263751		6.64828633		4.92998155		-0.00020542		 0.00025898		 0.00004807	
O		5.67263841		2.10670336		2.36978706		-0.00020522		-0.00025940		 0.00004772	
O		1.11176170		2.27079826		2.75060373		-0.00022528		 0.00023123		-0.00005678	
O		1.11176079		6.48419143		0.19040924		-0.00022426		-0.00023285		-0.00005627	
O		5.86966872		8.28825191		2.82113866		 0.00040792		-0.00044433		-0.00042144	
O		5.86966872		0.46673688		0.26094326		 0.00040782		 0.00044478		-0.00042116	
O		1.30878748		3.91075842		4.85944572		 0.00040056		-0.00044741		 0.00042028	
O		1.30878839		4.84423127		2.29925032		 0.00040065		 0.00044650		 0.00042079	
Si		2.71088908		0.77565373		0.34864506		 0.00028433		 0.00006742		-0.00004581	
Si		2.71088817		7.97933597		2.90884046		 0.00028573		-0.00007079		-0.00004603	
Si		7.27178839		5.15316078		2.21154672		 0.00021721		 0.00002455		 0.00005033	
Si		7.27178839		3.60182801		4.77174121		 0.00021572		-0.00002170		 0.00005018	
Si		6.39313888		7.96785101		4.38437579		 0.00020484		-0.00005402		-0.00017537	
Si		6.39313978		0.78713778		1.82418039		 0.00020378		 0.00005384		-0.00017481	
Si		1.83224408		3.59034848		3.29620497		 0.00025431		-0.00002649		 0.00018443	
Si		1.83224499		5.16463940		0.73601048		 0.00025309		 0.00002906		 0.00018406	
Mg		9.09530080		0.83678267		3.63426446		-0.00024812		 0.00037819		 0.00023905	
Mg		9.09530080		7.91820702		1.07406997		-0.00024804		-0.00037841		 0.00023889	
Mg		4.53441776		5.21427797		4.04631720		-0.00024651		 0.00037361		-0.00023840	
Mg		4.53441866		3.54071082		1.48612271		-0.00024655		-0.00037327		-0.00023858	
Mg		0.06959668		2.30554870		1.07068215		-0.00006318		 0.00068112		 0.00040203	
Mg		0.06959668		6.44944190		3.63087755		-0.00006322		-0.00068122		 0.00040199	
Mg		4.63047882		6.68304400		1.48951143		-0.00006516		 0.00067627		-0.00040005	
Mg		4.63047882		2.07194479		4.04970683		-0.00006509		-0.00067628		-0.00040015	
