# total energy = -24713.4936105 eV	

CRYSTAL	
PRIMVEC	
		10.93920664		0.00000000		-1.23462695	
		0.00000000		10.81264689		0.00000000	
		-1.80746280		0.00000000		5.23819358	
PRIMCOORD
   40 1	
Si		2.28195283		0.92028308		1.00094180		-0.00011476		-0.00000230		 0.00014460	
Si		6.85006520		9.89238130		3.00254753		-0.00052869		-0.00003792		-0.00005696	
Si		7.75352425		0.92040545		0.38353355		 0.00010946		-0.00029857		-0.00014256	
Si		1.37794541		9.89225984		3.62012600		 0.00053199		 0.00025496		 0.00005623	
Si		7.75146139		6.32665713		0.38373414		 0.00004619		-0.00013962		-0.00003893	
Si		1.38037447		4.48596768		3.61983157		-0.00032891		 0.00015871		 0.00000792	
Si		2.28401478		6.32677858		1.00074306		-0.00004824		-0.00042953		 0.00003922	
Si		6.84763430		4.48584531		3.00284197		 0.00033258		 0.00045086		-0.00000907	
Mg		-0.45185374		8.27650632		1.30955069		-0.00003016		-0.00027915		-0.00001081	
Mg		-1.35560906		2.53614702		3.92864656		 0.00002996		 0.00028030		 0.00001088	
Mg		5.01774866		2.87016355		0.69223906		-0.00002976		 0.00005923		-0.00001047	
Mg		4.11399518		7.94246770		3.31133585		 0.00003003		-0.00005106		 0.00001042	
Mg		-0.45187674		2.86873371		1.30954885		 0.00003021		 0.00037735		 0.00001000	
Mg		-1.35558606		7.94389478		3.92864840		-0.00003042		-0.00037668		-0.00001002	
Mg		5.01772750		8.27504888		0.69223722		 0.00002995		 0.00001912		 0.00001040	
Mg		4.11401543		2.53760445		3.31133677		-0.00002973		-0.00002337		-0.00001034	
O		1.01275128		1.82527041		0.47415144		 0.00078543		-0.00057293		-0.00038001	
O		8.11886375		8.98744641		3.52943082		-0.00048202		 0.00039076		 0.00042817	
O		9.02272764		1.82526489		0.91032299		-0.00079467		-0.00056500		 0.00038329	
O		0.10914410		8.98745101		3.09324363		 0.00049337		 0.00038454		-0.00043068	
O		6.48240337		7.23154233		-0.14315468		 0.00067175		-0.00050064		-0.00040054	
O		2.64929907		3.58115148		4.14673142		-0.00052210		 0.00038860		 0.00044527	
O		3.55307739		7.23153865		1.52763003		-0.00068344		-0.00049466		 0.00040286	
O		5.57870694		3.58115609		2.47594303		 0.00053214		 0.00038130		-0.00044823	
O		3.54872164		1.82898946		1.52688107		-0.00005927		-0.00051381		 0.00045602	
O		5.58291363		8.98356083		2.47670764		 0.00035654		 0.00070779		-0.00040573	
O		6.48674808		1.82898762		-0.14240295		 0.00007192		-0.00050789		-0.00045884	
O		2.64510341		8.98356267		4.14596314		-0.00037008		 0.00070279		 0.00040845	
O		9.01830564		7.23530738		0.90952711		-0.00003363		-0.00047586		 0.00049419	
O		0.11337380		3.57729719		3.09404412		 0.00018686		 0.00057259		-0.00045233	
O		1.01716592		7.23530646		0.47495101		 0.00004655		-0.00047042		-0.00049692	
O		8.11464049		3.57729903		3.52862666		-0.00019921		 0.00056655		 0.00045511	
O		0.92765952		0.00040944		4.93002265		 0.00009157		-0.00024818		-0.00027687	
O		8.20409537		10.81222365		-0.92644591		-0.00010128		 0.00027413		 0.00029949	
O		7.30027656		0.00029995		1.69275853		 0.00003243		 0.00001210		-0.00004757	
O		1.83145532		10.81233222		2.31081453		-0.00002193		 0.00001537		 0.00002301	
O		6.39729228		5.40666940		4.31268985		 0.00005135		-0.00017563		-0.00016726	
O		2.73444696		5.40597013		-0.30912967		-0.00005288		 0.00017144		 0.00017470	
O		1.83064656		5.40656451		2.31009041		 0.00007029		 0.00007994		-0.00015113	
O		7.30110097		5.40607686		1.69349921		-0.00006939		-0.00008524		 0.00014506	
