# total energy = -24716.3709934 eV	

CRYSTAL	
PRIMVEC	
		9.32201132		0.00000000		-0.01228333	
		0.00000000		8.74930429		0.00000000	
		-0.99779322		0.00000000		4.85683054	
PRIMCOORD
   40 1	
Si		2.57694977		0.79687007		1.02392590		 0.00004619		-0.00017529		-0.00002579	
Si		5.74726281		7.95243146		3.82062223		-0.00004661		 0.00017488		 0.00002547	
Si		6.24616126		0.79687007		1.39220604		-0.00004616		-0.00017543		 0.00002584	
Si		2.07805132		7.95243146		3.45234117		 0.00004653		 0.00017504		-0.00002559	
Si		7.23795267		5.17151945		1.01778331		 0.00004912		-0.00017341		-0.00002436	
Si		1.08625991		3.57778116		3.82676481		-0.00004933		 0.00017341		 0.00002428	
Si		1.58515744		5.17151945		1.39834862		-0.00004909		-0.00017351		 0.00002440	
Si		6.73905422		3.57778116		3.44619858		 0.00004919		 0.00017358		-0.00002437	
Mg		-0.24944922		7.92175533		1.21420809		-0.00000007		 0.00015685		0.00000000	
Mg		-0.74834675		0.82754620		3.64262428		 0.00000001		-0.00015674		-0.00000001	
Mg		4.41155552		3.54710503		1.20806551		 0.00000004		 0.00015655		0.00000000	
Mg		3.91265707		5.20219651		3.63648170		 0.00000003		-0.00015651		0.00000000	
Mg		-0.24944922		2.39238875		1.21420809		-0.00000001		 0.00013743		 0.00000003	
Mg		-0.74834675		6.35691186		3.64262428		-0.00000002		-0.00013741		-0.00000001	
Mg		4.41155552		6.76703906		1.20806551		 0.00000003		 0.00013790		 0.00000002	
Mg		3.91265707		1.98226155		3.63648170		 0.00000002		-0.00013796		0.00000000	
O		0.99434192		0.79703937		0.67581435		 0.00008544		-0.00014247		 0.00018077	
O		7.32987066		7.95226125		4.16873377		-0.00008512		 0.00014239		-0.00018072	
O		7.82876911		0.79703937		1.74031758		-0.00008542		-0.00014246		-0.00018078	
O		0.49544347		7.95226125		3.10423054		 0.00008527		 0.00014238		 0.00018073	
O		5.65534574		5.17168967		0.66967177		 0.00008355		-0.00014264		 0.00018033	
O		2.66886592		3.57761094		4.17487544		-0.00008351		 0.00014264		-0.00018030	
O		3.16776437		5.17168967		1.74646017		-0.00008366		-0.00014263		-0.00018035	
O		5.15644821		3.57761094		3.09808796		 0.00008351		 0.00014261		 0.00018033	
O		3.15708293		2.06558488		1.78670258		 0.00000716		-0.00007043		-0.00000605	
O		5.16712874		6.68371665		3.05784554		-0.00000699		 0.00007088		 0.00000634	
O		5.66602719		2.06558488		0.62942935		-0.00000724		-0.00007031		 0.00000597	
O		2.65818540		6.68371665		4.21511877		 0.00000708		 0.00007075		-0.00000625	
O		7.81808767		6.44023519		1.78055999		 0.00000600		-0.00007219		-0.00000700	
O		0.50612492		2.30906542		3.06398721		-0.00000591		 0.00007207		 0.00000707	
O		1.00502336		6.44023519		0.63557194		-0.00000605		-0.00007219		 0.00000697	
O		7.31918922		2.30906542		4.20897618		 0.00000601		 0.00007194		-0.00000695	
O		2.40536861		0.53283910		4.43607526		-0.00020600		 0.00013306		 0.00003321	
O		5.91884398		8.21646151		0.40847286		 0.00020599		-0.00013293		-0.00003315	
O		5.41994553		0.53283910		2.83688905		 0.00020604		 0.00013310		-0.00003326	
O		2.90426613		8.21646151		2.00765907		-0.00020608		-0.00013298		 0.00003320	
O		7.06637243		4.90748940		4.42993267		-0.00020646		 0.00013285		 0.00003301	
O		1.25784016		3.84181121		0.41461453		 0.00020649		-0.00013284		-0.00003307	
O		0.75894171		4.90748940		2.84303072		 0.00020644		 0.00013289		-0.00003307	
O		7.56527088		3.84181121		2.00151740		-0.00020646		-0.00013286		 0.00003308	
