# total energy = -24716.1147899 eV	

CRYSTAL	
PRIMVEC	
		9.27148863		0.00000000		0.00680874	
		0.00000000		8.68551376		0.00000000	
		-0.98241835		0.00000000		4.83571424	
PRIMCOORD
   40 1	
Si		2.56792727		0.79446677		1.02324594		 0.00029498		-0.00018663		-0.00021813	
Si		5.72113657		7.89104699		3.81927980		-0.00029504		 0.00018650		 0.00021806	
Si		6.21234851		0.79446677		1.40142268		-0.00029499		-0.00018665		 0.00021813	
Si		2.07671533		7.89104699		3.44110215		 0.00029501		 0.00018653		-0.00021809	
Si		7.20366882		5.13722181		1.02665031		 0.00030025		-0.00018367		-0.00021570	
Si		1.08539502		3.54829103		3.81587451		-0.00030042		 0.00018361		 0.00021560	
Si		1.57660603		5.13722181		1.39801831		-0.00030025		-0.00018370		 0.00021571	
Si		6.71245781		3.54829103		3.44450744		 0.00030051		 0.00018354		-0.00021554	
Mg		-0.24560597		7.87094649		1.20892856		-0.00000002		-0.00008174		-0.00000002	
Mg		-0.73681698		0.81456635		3.62678568		 0.00000006		 0.00008173		 0.00000003	
Mg		4.39013743		3.52819053		1.21233477		-0.00000002		-0.00008214		-0.00000002	
Mg		3.89892641		5.15732231		3.63019097		 0.00000001		 0.00008218		-0.00000001	
Mg		-0.24560505		2.38044218		1.20892856		 0.00000003		 0.00001514		 0.00000003	
Mg		-0.73681698		6.30507066		3.62678568		-0.00000001		-0.00001515		 0.00000001	
Mg		4.39013743		6.72319814		1.21233385		 0.00000001		 0.00001593		 0.00000002	
Mg		3.89892641		1.96231470		3.63019097		-0.00000002		-0.00001599		0.00000000	
O		0.99022172		0.79075600		0.67365120		 0.00020734		-0.00021027		-0.00010763	
O		7.29884213		7.89475684		4.16887455		-0.00020734		 0.00021028		 0.00010763	
O		7.79005314		0.79075600		1.75101834		-0.00020742		-0.00021024		 0.00010760	
O		0.49901070		7.89475684		3.09150740		 0.00020742		 0.00021028		-0.00010763	
O		5.62596603		5.13351288		0.67705649		 0.00020399		-0.00021059		-0.00010841	
O		2.66309781		3.55200088		4.16546834		-0.00020390		 0.00021058		 0.00010842	
O		3.15430974		5.13351288		1.74761213		-0.00020402		-0.00021059		 0.00010843	
O		5.13475410		3.55200088		3.09491361		 0.00020387		 0.00021057		-0.00010843	
O		3.13915202		2.06076264		1.78956225		 0.00003256		-0.00033502		-0.00023519	
O		5.14991182		6.62475020		3.05296257		-0.00003248		 0.00033508		 0.00023528	
O		5.64112284		2.06076356		0.63510637		-0.00003255		-0.00033507		 0.00023523	
O		2.64794100		6.62475020		4.20741937		 0.00003254		 0.00033501		-0.00023530	
O		7.77489541		6.40351952		1.79296846		 0.00003054		-0.00033773		-0.00023681	
O		0.51416843		2.28199332		3.04955636		-0.00003050		 0.00033792		 0.00023685	
O		1.00537944		6.40352044		0.63170016		-0.00003056		-0.00033771		 0.00023678	
O		7.28368440		2.28199240		4.21082558		 0.00003050		 0.00033802		-0.00023689	
O		2.41198320		0.53567945		4.41691786		-0.00004353		 0.00002737		-0.00018159	
O		5.87708064		8.14983339		0.42560789		 0.00004358		-0.00002736		 0.00018162	
O		5.38586962		0.53567945		2.84346409		 0.00004358		 0.00002735		 0.00018157	
O		2.90319422		8.14983339		1.99906074		-0.00004361		-0.00002732		-0.00018159	
O		7.04772660		4.87843633		4.42032315		-0.00004447		 0.00002707		-0.00018188	
O		1.24133816		3.80707651		0.42220168		 0.00004440		-0.00002712		 0.00018183	
O		0.75012623		4.87843633		2.84005880		 0.00004447		 0.00002708		 0.00018189	
O		7.53893761		3.80707651		2.00246695		-0.00004447		-0.00002708		-0.00018185	
