# total energy = -20638.7423607 eV	

CRYSTAL	
PRIMVEC	
		4.74242132		-0.00005221		0.00000000	
		-0.00011390		10.08393969		0.00000000	
		0.00000000		0.00000000		5.93402322	
PRIMCOORD
   28 1	
Si		2.01801715		0.94919332		1.48350557		-0.00001977		 0.00007093		 0.00000004	
Si		2.72428884		9.13469416		4.45051623		 0.00001796		-0.00006711		-0.00000007	
Si		4.38916754		4.09270723		4.45051623		-0.00001430		-0.00009727		-0.00000017	
Si		0.35313751		5.99118024		1.48350509		 0.00001578		 0.00009382		 0.00000019	
Mg		0.00000000		0.00000000		0.00000000		-0.00000044		 0.00000296		-0.00000126	
Mg		2.37115276		5.04194374		0.00000000		 0.00000009		-0.00000291		 0.00000005	
Mg		0.00000000		0.00000000		2.96701066		-0.00000039		 0.00000296		 0.00000129	
Mg		2.37115276		5.04194374		2.96701066		-0.00000001		-0.00000283		-0.00000003	
Mg		4.69698644		2.78075342		1.48350557		-0.00018258		 0.00011722		 0.00000018	
Mg		0.04531908		7.30313406		4.45051623		 0.00018210		-0.00011740		-0.00000040	
Mg		2.32570886		2.26085098		4.45051623		-0.00020650		-0.00005266		-0.00000026	
Mg		2.41659618		7.82303650		1.48350557		 0.00020812		 0.00005226		 0.00000035	
O		3.63662377		0.92341684		1.48350557		-0.00006051		 0.00034790		-0.00000012	
O		1.10568079		9.16047016		4.45051623		 0.00006203		-0.00034981		 0.00000004	
O		1.26536945		4.11839638		4.45051575		-0.00005846		-0.00034104		 0.00000004	
O		3.47693654		5.96549157		1.48350557		 0.00005773		 0.00034282		-0.00000011	
O		1.05777942		4.48555120		1.48350557		-0.00015195		-0.00007275		-0.00000009	
O		3.68452610		5.59833628		4.45051623		 0.00015152		 0.00007391		-0.00000005	
O		3.42907788		0.55634556		4.45051623		-0.00015236		 0.00009952		 0.00000009	
O		1.31322716		9.52754192		1.48350557		 0.00015289		-0.00009743		-0.00000006	
O		1.30038354		1.65587316		0.18270486		 0.00004880		-0.00006784		-0.00007883	
O		3.44192198		8.42801432		5.75131694		-0.00004867		 0.00006621		 0.00007973	
O		3.67157616		3.38595383		5.75131836		 0.00004243		 0.00007619		 0.00008804	
O		1.07072888		6.69793365		0.18270296		-0.00004308		-0.00007641		-0.00008629	
O		3.44192245		8.42801432		3.14971552		-0.00004880		 0.00006619		-0.00007992	
O		1.30038306		1.65587316		2.78430628		 0.00004891		-0.00006767		 0.00007892	
O		1.07072935		6.69793365		2.78430770		-0.00004310		-0.00007599		 0.00008663	
O		3.67157569		3.38595383		3.14971362		 0.00004255		 0.00007623		-0.00008794	
