# total energy = -20638.3507838 eV	

CRYSTAL	
PRIMVEC	
		4.86397587		0.00014713		0.00000000	
		0.00031324		10.59542083		0.00000000	
		0.00000000		0.00000000		6.15964805	
PRIMCOORD
   28 1	
Si		2.06434475		0.98669953		1.53991225		 0.00015331		-0.00008886		 0.00000041	
Si		2.79994435		9.60886795		4.61973628		-0.00015347		 0.00008926		-0.00000053	
Si		4.49644754		4.31119883		4.61973628		 0.00014740		 0.00009605		-0.00000050	
Si		0.36784156		6.28436818		1.53991178		-0.00014704		-0.00009569		 0.00000052	
Mg		0.00000000		0.00000000		0.00000000		-0.00000000		-0.00000008		-0.00000012	
Mg		2.43214455		5.29778350		0.00000000		 0.00000015		 0.00000016		-0.00000004	
Mg		0.00000000		0.00000000		3.07982403		 0.00000004		-0.00000005		 0.00000007	
Mg		2.43214455		5.29778350		3.07982403		 0.00000009		 0.00000011		-0.00000004	
Mg		4.83489380		2.95138968		1.53991178		 0.00031670		-0.00015914		 0.00011430	
Mg		0.02939482		7.64417733		4.61973628		-0.00031659		 0.00015954		-0.00011432	
Mg		2.40265291		2.34761972		4.61973628		 0.00030787		-0.00023631		-0.00011107	
Mg		2.46163619		8.24794776		1.53991178		-0.00030763		 0.00023600		 0.00011098	
O		3.70656320		0.96456419		1.53991225		-0.00036277		 0.00003071		 0.00001539	
O		1.15772638		9.63100377		4.61973580		 0.00036259		-0.00003070		-0.00001549	
O		1.27469202		4.33329763		4.61973628		-0.00036480		-0.00000009		-0.00001545	
O		3.58959756		6.26226938		1.53991178		 0.00036427		 0.00000032		 0.00001548	
O		1.08323364		4.76184148		1.53991225		-0.00015607		-0.00014537		 0.00001551	
O		3.78105594		5.83372601		4.61973628		 0.00015590		 0.00014495		-0.00001547	
O		3.51503648		0.53595389		4.61973628		-0.00016574		 0.00019803		-0.00001551	
O		1.34925262		10.05961359		1.53991178		 0.00016595		-0.00019831		 0.00001545	
O		1.35710678		1.70847023		0.21958080		 0.00036577		 0.00029432		 0.00002664	
O		3.50718232		8.88709773		5.94006678		-0.00036561		-0.00029436		-0.00002654	
O		3.78914265		3.58957383		5.94003735		 0.00036967		-0.00022321		-0.00001498	
O		1.07514646		7.00599318		0.21961070		-0.00036997		 0.00022284		 0.00001583	
O		3.50718232		8.88709773		3.29940483		-0.00036549		-0.00029401		 0.00000378	
O		1.35710678		1.70847023		2.86024323		 0.00036567		 0.00029402		-0.00000384	
O		1.07514646		7.00599365		2.86021333		-0.00036988		 0.00022249		 0.00000684	
O		3.78914265		3.58957383		3.29943472		 0.00036969		-0.00022261		-0.00000729	
