# total energy = -10308.2651576 eV	

CRYSTAL	
PRIMVEC	
		3.51000135		0.56160178		0.00000000	
		0.56160178		3.51000135		0.00000000	
		0.00000000		0.00000000		10.44999966	
PRIMCOORD
   14 1	
Si		0.00000000		0.00000000		0.00000000		0.00000000		0.00000000		0.00000000	
Si		2.03580014		2.03580014		5.22500019		0.00000000		0.00000000		0.00000000	
Mg		0.00000000		0.00000000		3.90829993		0.00000000		0.00000000		-0.00018993	
Mg		0.00000000		0.00000000		6.54170009		0.00000000		0.00000000		 0.00018993	
Mg		2.03580014		2.03580014		9.13330012		0.00000000		0.00000000		-0.00030559	
Mg		2.03580014		2.03580014		1.31669990		0.00000000		0.00000000		 0.00030559	
O		0.28080018		1.75499996		0.00000000		0.00000000		0.00000000		0.00000000	
O		1.75499996		0.28080018		0.00000000		0.00000000		0.00000000		0.00000000	
O		1.75499996		0.28080018		5.22500019		0.00000000		0.00000000		0.00000000	
O		0.28080018		1.75499996		5.22500019		0.00000000		0.00000000		0.00000000	
O		0.00000000		0.00000000		1.72111496		0.00000000		0.00000000		-0.00040813	
O		0.00000000		0.00000000		8.72888506		0.00000000		0.00000000		 0.00040813	
O		2.03580014		2.03580014		6.94611515		0.00000000		0.00000000		-0.00048265	
O		2.03580014		2.03580014		3.50388487		0.00000000		0.00000000		 0.00048265	
