# total energy = -13384.4243254 eV	

CRYSTAL	
PRIMVEC	
		2.99162250		0.00000000		0.00000000	
		-1.49581125		2.59081855		0.00000000	
		0.00000000		0.00000000		18.63185458	
PRIMCOORD
   18 1	
O		0.00000000		0.00000000		5.80454436		-0.00000002		 0.00000003		 0.00009792	
O		0.00000000		0.00000000		12.82730472		-0.00000008		-0.00000003		-0.00009425	
O		1.49581033		0.86360639		8.07010179		 0.00000002		-0.00000000		 0.00004160	
O		0.00000000		1.72721247		10.56185751		 0.00000005		 0.00000003		-0.00044836	
O		1.49581033		0.86360639		1.15452126		 0.00000002		 0.00000001		-0.00036818	
O		0.00000000		1.72721247		17.47725363		-0.00000004		 0.00000002		 0.00068983	
O		0.00000000		1.72721308		3.41278507		0.00000000		-0.00000001		 0.00015694	
O		1.49580972		0.86360639		15.21906371		 0.00000006		-0.00000009		-0.00015278	
H		1.49581033		0.86360608		9.03104453		-0.00000000		-0.00000001		-0.00015260	
H		0.00000000		1.72721247		9.60071998		 0.00000001		 0.00000001		 0.00051185	
H		1.49581064		0.86360639		0.18997262		-0.00000001		-0.00000001		 0.00004396	
H		0.00000000		1.72721247		18.44195920		 0.00000001		 0.00000001		-0.00032787	
Mg		0.00000000		1.72721278		7.00571180		0.00000000		-0.00000001		 0.00024760	
Mg		1.49581003		0.86360578		11.62612965		-0.00000003		-0.00000000		-0.00020209	
Mg		0.00000000		0.00000000		2.21240286		-0.00000001		-0.00000000		 0.00009591	
Mg		0.00000000		0.00000000		16.41946057		 0.00000002		 0.00000002		-0.00013844	
Mg		1.49581064		0.86360639		4.60838140		-0.00000002		-0.00000001		 0.00048173	
Mg		0.00000000		1.72721247		14.02346769		 0.00000001		 0.00000005		-0.00048278	
