# total energy = -66814.5276166 eV

CRYSTAL
PRIMVEC
		18.34339846		0.00000000		0.00000000
		0.00000000		6.73129350		0.00000000
		0.00000000		0.00000000		10.61229803
PRIMECORD
   112 1
Ca		14.17192622		6.72409738		2.45759350		 0.00022711		 0.00007340		-0.00005168
Ca		4.17147224		0.00720345		8.15469536		-0.00022711		-0.00007340		 0.00005168
Ca		4.17147224		0.00720345		2.45759350		-0.00022711		-0.00007340		-0.00005168
Ca		14.17192622		6.72409738		8.15469536		 0.00022711		 0.00007340		 0.00005168
Ca		13.34317147		3.35844697		2.84855002		-0.00022711		 0.00007340		 0.00005168
Ca		5.00022699		3.37285204		7.76374068		 0.00022711		-0.00007340		-0.00005168
Ca		5.00022699		3.37285204		2.84855002		 0.00022711		-0.00007340		 0.00005168
Ca		13.34317147		3.35844697		7.76374068		-0.00022711		 0.00007340		-0.00005168
Ca		7.55546239		1.06468937		7.94478452		-0.00016489		 0.00021138		-0.00031476
Ca		10.78793607		5.66660963		2.66750434		 0.00016489		-0.00021138		 0.00031476
Ca		10.78793607		5.66660963		7.94478452		 0.00016489		-0.00021138		-0.00031476
Ca		7.55546239		1.06468937		2.66750434		-0.00016489		 0.00021138		 0.00031476
Ca		1.61623684		4.43033979		7.97364969		 0.00016489		 0.00021138		 0.00031476
Ca		16.72716162		2.30095922		2.63863917		-0.00016489		-0.00021138		-0.00031476
Ca		16.72716162		2.30095922		7.97364969		-0.00016489		-0.00021138		 0.00031476
Ca		1.61623684		4.43033979		2.63863917		 0.00016489		 0.00021138		-0.00031476
Ca		6.10413271		5.40388814		0.00000000		 0.00009266		-0.00046502		0.00000000
Ca		12.23926575		1.32741269		0.00000000		-0.00009266		 0.00046502		-0.00000000
Ca		3.06756652		2.03823773		5.30614535		-0.00009266		-0.00046502		0.00000000
Ca		15.27583194		4.69306128		5.30614535		 0.00009266		 0.00046502		-0.00000000
Ca		12.35024332		1.15643754		5.30614535		-0.00018590		-0.00026983		0.00000000
Ca		5.99315515		5.57486146		5.30614535		 0.00018590		 0.00026983		0.00000000
Ca		15.16485438		4.52208613		0.00000000		 0.00018590		-0.00026983		-0.00000000
Ca		3.17854409		2.20921287		0.00000000		-0.00018590		 0.00026983		-0.00000000
Ca		9.17169923		3.36565042		0.00000000		0.00000000		0.00000000		0.00000000
Ca		0.00000000		0.00000000		5.30614535		0.00000000		0.00000000		0.00000000
Ca		9.17169923		3.36565042		5.30614535		0.00000000		0.00000000		0.00000000
Ca		0.00000000		0.00000000		0.00000000		0.00000000		0.00000000		-0.00000000
Si		7.68918577		4.84249761		7.97810713		-0.00030489		 0.00041579		-0.00007504
Si		10.65421086		1.88880323		2.63418356		 0.00030489		-0.00041579		 0.00007504
Si		10.65421086		1.88880323		7.97810713		 0.00030489		-0.00041579		-0.00007504
Si		7.68918577		4.84249761		2.63418356		-0.00030489		 0.00041579		 0.00007504
Si		1.48251346		1.47684719		7.94032707		 0.00030489		 0.00041579		 0.00007504
Si		16.86088500		5.25445365		2.67196179		-0.00030489		-0.00041579		-0.00007504
Si		16.86088500		5.25445365		7.94032707		-0.00030489		-0.00041579		 0.00007504
Si		1.48251346		1.47684719		2.67196179		 0.00030489		 0.00041579		-0.00007504
Si		12.17689820		4.95087040		5.30614535		-0.00008378		 0.00016552		0.00000000
Si		6.16650026		1.78042860		5.30614535		 0.00008378		-0.00016552		0.00000000
Si		15.33819949		1.58522182		0.00000000		 0.00008378		 0.00016552		-0.00000000
Si		3.00519897		5.14607902		0.00000000		-0.00008378		-0.00016552		-0.00000000
Si		6.20337049		1.90361186		0.00000000		-0.00017567		-0.00082827		0.00000000
Si		12.14002797		4.82768898		0.00000000		 0.00017567		 0.00082827		0.00000000
Si		2.96832874		5.26926044		5.30614535		 0.00017567		-0.00082827		0.00000000
Si		15.37506972		1.46203856		5.30614535		-0.00017567		 0.00082827		0.00000000
Mg		9.17169923		0.00000000		5.30614535		0.00000000		0.00000000		0.00000000
Mg		0.00000000		3.36565042		0.00000000		0.00000000		0.00000000		0.00000000
Mg		9.17169923		0.00000000		0.00000000		0.00000000		0.00000000		0.00000000
Mg		0.00000000		3.36565042		5.30614535		0.00000000		0.00000000		0.00000000
O		5.29573914		1.72994390		1.29469908		-0.00005196		-0.00005510		-0.00000499
O		13.04765933		5.00135511		9.31759162		 0.00005196		 0.00005510		 0.00000499
O		13.04765933		5.00135511		1.29469908		 0.00005196		 0.00005510		-0.00000499
O		5.29573914		1.72994390		9.31759162		-0.00005196		-0.00005510		 0.00000499
O		3.87596009		5.09559432		4.01144627		 0.00005196		-0.00005510		 0.00000499
O		14.46743837		1.63570652		6.60084442		-0.00005196		 0.00005510		-0.00000499
O		14.46743837		1.63570652		4.01144627		-0.00005196		 0.00005510		 0.00000499
O		3.87596009		5.09559432		6.60084442		 0.00005196		-0.00005510		-0.00000499
O		12.78168005		5.70410354		4.03585400		 0.00007697		 0.00006546		 0.00020109
O		5.56171841		1.02719546		6.57643670		-0.00007697		-0.00006546		-0.00020109
O		5.56171841		1.02719546		4.03585400		-0.00007697		-0.00006546		 0.00020109
O		12.78168005		5.70410354		6.57643670		 0.00007697		 0.00006546		-0.00020109
O		14.73341764		2.33845312		1.27029135		-0.00007697		 0.00006546		-0.00020109
O		3.60998082		4.39284588		9.34199934		 0.00007697		-0.00006546		 0.00020109
O		3.60998082		4.39284588		1.27029135		 0.00007697		-0.00006546		-0.00020109
O		14.73341764		2.33845312		9.34199934		-0.00007697		 0.00006546		 0.00020109
O		8.72595465		5.25647142		9.13293596		-0.00003762		-0.00010656		-0.00039432
O		9.61744381		1.47482758		1.47935290		 0.00003762		 0.00010656		 0.00039432
O		9.61744381		1.47482758		9.13293596		 0.00003762		 0.00010656		-0.00039432
O		8.72595465		5.25647142		1.47935290		-0.00003762		-0.00010656		 0.00039432
O		0.44574458		1.89082284		6.78549824		 0.00003762		-0.00010656		 0.00039432
O		17.89765388		4.84047800		3.82679245		-0.00003762		 0.00010656		-0.00039432
O		17.89765388		4.84047800		6.78549824		-0.00003762		 0.00010656		 0.00039432
O		0.44574458		1.89082284		3.82679245		 0.00003762		-0.00010656		-0.00039432
O		6.21712804		5.45302644		8.34338290		-0.00054505		 0.00011557		 0.00029472
O		12.12627042		1.27827440		2.26890780		 0.00054505		-0.00011557		-0.00029472
O		12.12627042		1.27827440		8.34338290		 0.00054505		-0.00011557		 0.00029472
O		6.21712804		5.45302644		2.26890780		-0.00054505		 0.00011557		-0.00029472
O		2.95457119		2.08737602		7.57505314		 0.00054505		 0.00011557		-0.00029472
O		15.38882727		4.64392298		3.03723755		-0.00054505		-0.00011557		 0.00029472
O		15.38882727		4.64392298		7.57505314		-0.00054505		-0.00011557		-0.00029472
O		2.95457119		2.08737602		3.03723755		 0.00054505		 0.00011557		 0.00029472
O		6.89711782		3.33805278		0.00000000		-0.00023402		-0.00024917		0.00000000
O		11.44628064		3.39324806		0.00000000		 0.00023402		 0.00024917		0.00000000
O		2.27458141		6.70370136		5.30614535		 0.00023402		-0.00024917		0.00000000
O		16.06881705		0.02759764		5.30614535		-0.00023402		 0.00024917		0.00000000
O		7.54830847		3.29497147		7.63129767		-0.00013824		-0.00007114		 0.00001115
O		10.79508999		3.43632937		2.98099119		 0.00013824		 0.00007114		-0.00001115
O		10.79508999		3.43632937		7.63129767		 0.00013824		 0.00007114		 0.00001115
O		7.54830847		3.29497147		2.98099119		-0.00013824		-0.00007114		-0.00001115
O		1.62339076		6.66062005		8.28713837		 0.00013824		-0.00007114		-0.00001115
O		16.72000770		0.07067895		2.32515232		-0.00013824		 0.00007114		 0.00001115
O		16.72000770		0.07067895		8.28713837		-0.00013824		 0.00007114		-0.00001115
O		1.62339076		6.66062005		2.32515232		 0.00013824		-0.00007114		 0.00001115
O		7.29700391		0.70342164		0.00000000		 0.00042092		-0.00044513		0.00000000
O		11.04639455		6.02787920		0.00000000		-0.00042092		 0.00044513		-0.00000000
O		1.87469532		4.06907022		5.30614535		-0.00042092		-0.00044513		0.00000000
O		16.46870314		2.66222878		5.30614535		 0.00042092		 0.00044513		0.00000000
O		10.57313487		5.19521731		5.30614535		-0.00060452		 0.00040685		0.00000000
O		7.77026359		1.53608352		5.30614535		 0.00060452		-0.00040685		0.00000000
O		16.94196282		1.82956689		0.00000000		 0.00060452		 0.00040685		0.00000000
O		1.40143564		4.90173211		0.00000000		-0.00060452		-0.00040685		0.00000000
O		12.74132457		3.45046479		5.30614535		 0.00033631		 0.00028190		-0.00000000
O		5.60207389		3.28083605		5.30614535		-0.00033631		-0.00028190		-0.00000000
O		14.77377312		0.08481437		0.00000000		-0.00033631		 0.00028190		0.00000000
O		3.56962534		6.64648463		0.00000000		 0.00033631		-0.00028190		-0.00000000
O		8.14997194		5.66102224		6.68149851		 0.00042690		 0.00027127		 0.00033965
O		10.19342652		1.07027677		3.93079218		-0.00042690		-0.00027127		-0.00033965
O		10.19342652		1.07027677		6.68149851		-0.00042690		-0.00027127		 0.00033965
O		8.14997194		5.66102224		3.93079218		 0.00042690		 0.00027127		-0.00033965
O		1.02172729		2.29537365		9.23693753		-0.00042690		 0.00027127		-0.00033965
O		17.32167117		4.43592535		1.37535316		 0.00042690		-0.00027127		 0.00033965
O		17.32167117		4.43592535		9.23693753		 0.00042690		-0.00027127		-0.00033965
O		1.02172729		2.29537365		1.37535316		-0.00042690		 0.00027127		 0.00033965
