# total energy = -66812.4549496 eV

CRYSTAL
PRIMVEC
		18.34339846		0.00000000		0.00000000
		0.00000000		6.73129350		0.00000000
		0.00000000		0.00000000		10.34017371
PRIMECORD
   112 1
Ca		14.17192622		6.72409738		2.39457842		 0.00020389		 0.00030354		-0.00021533
Ca		4.17147224		0.00720345		7.94560080		-0.00020389		-0.00030354		 0.00021533
Ca		4.17147224		0.00720345		2.39457842		-0.00020389		-0.00030354		-0.00021533
Ca		14.17192622		6.72409738		7.94560080		 0.00020389		 0.00030354		 0.00021533
Ca		13.34317147		3.35844697		2.77551027		-0.00020389		 0.00030354		 0.00021533
Ca		5.00022699		3.37285204		7.56466894		 0.00020389		-0.00030354		-0.00021533
Ca		5.00022699		3.37285204		2.77551027		 0.00020389		-0.00030354		 0.00021533
Ca		13.34317147		3.35844697		7.56466894		-0.00020389		 0.00030354		-0.00021533
Ca		7.55546239		1.06468937		7.74107190		-0.00010134		 0.00033057		-0.00019425
Ca		10.78793607		5.66660963		2.59910731		 0.00010134		-0.00033057		 0.00019425
Ca		10.78793607		5.66660963		7.74107190		 0.00010134		-0.00033057		-0.00019425
Ca		7.55546239		1.06468937		2.59910731		-0.00010134		 0.00033057		 0.00019425
Ca		1.61623684		4.43033979		7.76919784		 0.00010134		 0.00033057		 0.00019425
Ca		16.72716162		2.30095922		2.57098138		-0.00010134		-0.00033057		-0.00019425
Ca		16.72716162		2.30095922		7.76919784		-0.00010134		-0.00033057		 0.00019425
Ca		1.61623684		4.43033979		2.57098138		 0.00010134		 0.00033057		-0.00019425
Ca		6.10413271		5.40388814		0.00000000		-0.00006181		-0.00037181		0.00000000
Ca		12.23926575		1.32741269		0.00000000		 0.00006181		 0.00037181		0.00000000
Ca		3.06756652		2.03823773		5.17009052		 0.00006181		-0.00037181		-0.00000000
Ca		15.27583194		4.69306128		5.17009052		-0.00006181		 0.00037181		-0.00000000
Ca		12.35024332		1.15643754		5.17009052		-0.00047394		 0.00031428		-0.00000000
Ca		5.99315515		5.57486146		5.17009052		 0.00047394		-0.00031428		-0.00000000
Ca		15.16485438		4.52208613		0.00000000		 0.00047394		 0.00031428		-0.00000000
Ca		3.17854409		2.20921287		0.00000000		-0.00047394		-0.00031428		0.00000000
Ca		9.17169923		3.36565042		0.00000000		0.00000000		0.00000000		0.00000000
Ca		0.00000000		0.00000000		5.17009052		0.00000000		0.00000000		0.00000000
Ca		9.17169923		3.36565042		5.17009052		0.00000000		0.00000000		0.00000000
Ca		0.00000000		0.00000000		0.00000000		0.00000000		0.00000000		0.00000000
Si		7.68918577		4.84249761		7.77354155		-0.00015470		 0.00002434		-0.00023314
Si		10.65421086		1.88880323		2.56663950		 0.00015470		-0.00002434		 0.00023314
Si		10.65421086		1.88880323		7.77354155		 0.00015470		-0.00002434		-0.00023314
Si		7.68918577		4.84249761		2.56663950		-0.00015470		 0.00002434		 0.00023314
Si		1.48251346		1.47684719		7.73673002		 0.00015470		 0.00002434		 0.00023314
Si		16.86088500		5.25445365		2.60344919		-0.00015470		-0.00002434		-0.00023314
Si		16.86088500		5.25445365		7.73673002		-0.00015470		-0.00002434		 0.00023314
Si		1.48251346		1.47684719		2.60344919		 0.00015470		 0.00002434		-0.00023314
Si		12.17689820		4.95087040		5.17009052		-0.00002658		 0.00061722		-0.00000000
Si		6.16650026		1.78042860		5.17009052		 0.00002658		-0.00061722		-0.00000000
Si		15.33819949		1.58522182		0.00000000		 0.00002658		 0.00061722		-0.00000000
Si		3.00519897		5.14607902		0.00000000		-0.00002658		-0.00061722		-0.00000000
Si		6.20337049		1.90361186		0.00000000		-0.00000716		-0.00057119		0.00000000
Si		12.14002797		4.82768898		0.00000000		 0.00000716		 0.00057119		0.00000000
Si		2.96832874		5.26926044		5.17009052		 0.00000716		-0.00057119		-0.00000000
Si		15.37506972		1.46203856		5.17009052		-0.00000716		 0.00057119		0.00000000
Mg		9.17169923		0.00000000		5.17009052		0.00000000		0.00000000		0.00000000
Mg		0.00000000		3.36565042		0.00000000		0.00000000		0.00000000		-0.00000000
Mg		9.17169923		0.00000000		0.00000000		0.00000000		0.00000000		0.00000000
Mg		0.00000000		3.36565042		5.17009052		0.00000000		0.00000000		-0.00000000
O		5.29573914		1.72994390		1.26150119		 0.00034814		 0.00015565		-0.00029216
O		13.04765933		5.00135511		9.07867802		-0.00034814		-0.00015565		 0.00029216
O		13.04765933		5.00135511		1.26150119		-0.00034814		-0.00015565		-0.00029216
O		5.29573914		1.72994390		9.07867802		 0.00034814		 0.00015565		 0.00029216
O		3.87596009		5.09559432		3.90858750		-0.00034814		 0.00015565		 0.00029216
O		14.46743837		1.63570652		6.43159172		 0.00034814		-0.00015565		-0.00029216
O		14.46743837		1.63570652		3.90858750		 0.00034814		-0.00015565		 0.00029216
O		3.87596009		5.09559432		6.43159172		-0.00034814		 0.00015565		-0.00029216
O		12.78168005		5.70410354		3.93236971		-0.00012176		-0.00006460		 0.00058264
O		5.56171841		1.02719546		6.40780950		 0.00012176		 0.00006460		-0.00058264
O		5.56171841		1.02719546		3.93236971		 0.00012176		 0.00006460		 0.00058264
O		12.78168005		5.70410354		6.40780950		-0.00012176		-0.00006460		-0.00058264
O		14.73341764		2.33845312		1.23772081		 0.00012176		-0.00006460		-0.00058264
O		3.60998082		4.39284588		9.10246024		-0.00012176		 0.00006460		 0.00058264
O		3.60998082		4.39284588		1.23772081		-0.00012176		 0.00006460		-0.00058264
O		14.73341764		2.33845312		9.10246024		 0.00012176		-0.00006460		 0.00058264
O		8.72595465		5.25647142		8.89875863		-0.00025166		-0.00036214		-0.00077605
O		9.61744381		1.47482758		1.44142058		 0.00025166		 0.00036214		 0.00077605
O		9.61744381		1.47482758		8.89875863		 0.00025166		 0.00036214		-0.00077605
O		8.72595465		5.25647142		1.44142058		-0.00025166		-0.00036214		 0.00077605
O		0.44574458		1.89082284		6.61151111		 0.00025166		-0.00036214		 0.00077605
O		17.89765388		4.84047800		3.72866811		-0.00025166		 0.00036214		-0.00077605
O		17.89765388		4.84047800		6.61151111		-0.00025166		 0.00036214		 0.00077605
O		0.44574458		1.89082284		3.72866811		 0.00025166		-0.00036214		-0.00077605
O		6.21712804		5.45302644		8.12944934		-0.00041443		 0.00013252		 0.00056244
O		12.12627042		1.27827440		2.21073171		 0.00041443		-0.00013252		-0.00056244
O		12.12627042		1.27827440		8.12944934		 0.00041443		-0.00013252		 0.00056244
O		6.21712804		5.45302644		2.21073171		-0.00041443		 0.00013252		-0.00056244
O		2.95457119		2.08737602		7.38082040		 0.00041443		 0.00013252		-0.00056244
O		15.38882727		4.64392298		2.95935882		-0.00041443		-0.00013252		 0.00056244
O		15.38882727		4.64392298		7.38082040		-0.00041443		-0.00013252		-0.00056244
O		2.95457119		2.08737602		2.95935882		 0.00041443		 0.00013252		 0.00056244
O		6.89711782		3.33805278		0.00000000		-0.00055484		-0.00062203		0.00000000
O		11.44628064		3.39324806		0.00000000		 0.00055484		 0.00062203		0.00000000
O		2.27458141		6.70370136		5.17009052		 0.00055484		-0.00062203		0.00000000
O		16.06881705		0.02759764		5.17009052		-0.00055484		 0.00062203		0.00000000
O		7.54830847		3.29497147		7.43562314		 0.00013675		 0.00023112		 0.00007277
O		10.79508999		3.43632937		2.90455608		-0.00013675		-0.00023112		-0.00007277
O		10.79508999		3.43632937		7.43562314		-0.00013675		-0.00023112		 0.00007277
O		7.54830847		3.29497147		2.90455608		 0.00013675		 0.00023112		-0.00007277
O		1.62339076		6.66062005		8.07464660		-0.00013675		 0.00023112		-0.00007277
O		16.72000770		0.07067895		2.26553261		 0.00013675		-0.00023112		 0.00007277
O		16.72000770		0.07067895		8.07464660		 0.00013675		-0.00023112		-0.00007277
O		1.62339076		6.66062005		2.26553261		-0.00013675		 0.00023112		 0.00007277
O		7.29700391		0.70342164		0.00000000		-0.00008661		-0.00091055		0.00000000
O		11.04639455		6.02787920		0.00000000		 0.00008661		 0.00091055		0.00000000
O		1.87469532		4.06907022		5.17009052		 0.00008661		-0.00091055		0.00000000
O		16.46870314		2.66222878		5.17009052		-0.00008661		 0.00091055		0.00000000
O		10.57313487		5.19521731		5.17009052		-0.00071630		-0.00012201		-0.00000000
O		7.77026359		1.53608352		5.17009052		 0.00071630		 0.00012201		-0.00000000
O		16.94196282		1.82956689		0.00000000		 0.00071630		-0.00012201		0.00000000
O		1.40143564		4.90173211		0.00000000		-0.00071630		 0.00012201		-0.00000000
O		12.74132457		3.45046479		5.17009052		 0.00019918		 0.00070226		0.00000000
O		5.60207389		3.28083605		5.17009052		-0.00019918		-0.00070226		0.00000000
O		14.77377312		0.08481437		0.00000000		-0.00019918		 0.00070226		0.00000000
O		3.56962534		6.64648463		0.00000000		 0.00019918		-0.00070226		-0.00000000
O		8.14997194		5.66102224		6.51017667		 0.00006103		 0.00012236		 0.00040197
O		10.19342652		1.07027677		3.83000254		-0.00006103		-0.00012236		-0.00040197
O		10.19342652		1.07027677		6.51017667		-0.00006103		-0.00012236		 0.00040197
O		8.14997194		5.66102224		3.83000254		 0.00006103		 0.00012236		-0.00040197
O		1.02172729		2.29537365		9.00009307		-0.00006103		 0.00012236		-0.00040197
O		17.32167117		4.43592535		1.34008615		 0.00006103		-0.00012236		 0.00040197
O		17.32167117		4.43592535		9.00009307		 0.00006103		-0.00012236		-0.00040197
O		1.02172729		2.29537365		1.34008615		-0.00006103		 0.00012236		 0.00040197
