# total energy = -66812.5241342 eV

CRYSTAL
PRIMVEC
		18.34339846		0.00000000		0.00000000
		0.00000000		6.73129350		0.00000000
		0.00000000		0.00000000		11.70072192
PRIMECORD
   112 1
Ca		14.17192622		6.72409738		2.70965564		 0.00006424		-0.00000327		 0.00047326
Ca		4.17147224		0.00720345		8.99107545		-0.00006424		 0.00000327		-0.00047326
Ca		4.17147224		0.00720345		2.70965564		-0.00006424		 0.00000327		 0.00047326
Ca		14.17192622		6.72409738		8.99107545		 0.00006424		-0.00000327		-0.00047326
Ca		13.34317147		3.35844697		3.14070899		-0.00006424		-0.00000327		-0.00047326
Ca		5.00022699		3.37285204		8.56002027		 0.00006424		 0.00000327		 0.00047326
Ca		5.00022699		3.37285204		3.14070899		 0.00006424		 0.00000327		-0.00047326
Ca		13.34317147		3.35844697		8.56002027		-0.00006424		-0.00000327		 0.00047326
Ca		7.55546239		1.06468937		8.75963496		-0.00025916		-0.00019293		 0.00027118
Ca		10.78793607		5.66660963		2.94109613		 0.00025916		 0.00019293		-0.00027118
Ca		10.78793607		5.66660963		8.75963496		 0.00025916		 0.00019293		 0.00027118
Ca		7.55546239		1.06468937		2.94109613		-0.00025916		-0.00019293		-0.00027118
Ca		1.61623684		4.43033979		8.79146076		 0.00025916		-0.00019293		-0.00027118
Ca		16.72716162		2.30095922		2.90927033		-0.00025916		 0.00019293		 0.00027118
Ca		16.72716162		2.30095922		8.79146076		-0.00025916		 0.00019293		-0.00027118
Ca		1.61623684		4.43033979		2.90927033		 0.00025916		-0.00019293		 0.00027118
Ca		6.10413271		5.40388814		0.00000000		 0.00077955		 0.00028104		0.00000000
Ca		12.23926575		1.32741269		0.00000000		-0.00077955		-0.00028104		0.00000000
Ca		3.06756652		2.03823773		5.85036463		-0.00077955		 0.00028104		0.00000000
Ca		15.27583194		4.69306128		5.85036463		 0.00077955		-0.00028104		0.00000000
Ca		12.35024332		1.15643754		5.85036463		 0.00024756		 0.00007068		0.00000000
Ca		5.99315515		5.57486146		5.85036463		-0.00024756		-0.00007068		0.00000000
Ca		15.16485438		4.52208613		0.00000000		-0.00024756		 0.00007068		0.00000000
Ca		3.17854409		2.20921287		0.00000000		 0.00024756		-0.00007068		0.00000000
Ca		9.17169923		3.36565042		0.00000000		0.00000000		0.00000000		0.00000000
Ca		0.00000000		0.00000000		5.85036463		0.00000000		0.00000000		-0.00000000
Ca		9.17169923		3.36565042		5.85036463		0.00000000		0.00000000		0.00000000
Ca		0.00000000		0.00000000		0.00000000		0.00000000		0.00000000		0.00000000
Si		7.68918577		4.84249761		8.79637495		-0.00040435		 0.00006033		 0.00014534
Si		10.65421086		1.88880323		2.90435614		 0.00040435		-0.00006033		-0.00014534
Si		10.65421086		1.88880323		8.79637495		 0.00040435		-0.00006033		 0.00014534
Si		7.68918577		4.84249761		2.90435614		-0.00040435		 0.00006033		-0.00014534
Si		1.48251346		1.47684719		8.75472077		 0.00040435		 0.00006033		-0.00014534
Si		16.86088500		5.25445365		2.94601033		-0.00040435		-0.00006033		 0.00014534
Si		16.86088500		5.25445365		8.75472077		-0.00040435		-0.00006033		-0.00014534
Si		1.48251346		1.47684719		2.94601033		 0.00040435		 0.00006033		 0.00014534
Si		12.17689820		4.95087040		5.85036463		-0.00020190		-0.00016048		0.00000000
Si		6.16650026		1.78042860		5.85036463		 0.00020190		 0.00016048		0.00000000
Si		15.33819949		1.58522182		0.00000000		 0.00020190		-0.00016048		0.00000000
Si		3.00519897		5.14607902		0.00000000		-0.00020190		 0.00016048		0.00000000
Si		6.20337049		1.90361186		0.00000000		 0.00039814		 0.00019816		0.00000000
Si		12.14002797		4.82768898		0.00000000		-0.00039814		-0.00019816		0.00000000
Si		2.96832874		5.26926044		5.85036463		-0.00039814		 0.00019816		0.00000000
Si		15.37506972		1.46203856		5.85036463		 0.00039814		-0.00019816		0.00000000
Mg		9.17169923		0.00000000		5.85036463		0.00000000		0.00000000		0.00000000
Mg		0.00000000		3.36565042		0.00000000		0.00000000		0.00000000		0.00000000
Mg		9.17169923		0.00000000		0.00000000		0.00000000		0.00000000		0.00000000
Mg		0.00000000		3.36565042		5.85036463		0.00000000		0.00000000		-0.00000000
O		5.29573914		1.72994390		1.42748877		 0.00012423		 0.00057656		 0.00010036
O		13.04765933		5.00135511		10.27324232		-0.00012423		-0.00057656		-0.00010036
O		13.04765933		5.00135511		1.42748877		-0.00012423		-0.00057656		 0.00010036
O		5.29573914		1.72994390		10.27324232		 0.00012423		 0.00057656		-0.00010036
O		3.87596009		5.09559432		4.42287586		-0.00012423		 0.00057656		-0.00010036
O		14.46743837		1.63570652		7.27785340		 0.00012423		-0.00057656		 0.00010036
O		14.46743837		1.63570652		4.42287586		 0.00012423		-0.00057656		-0.00010036
O		3.87596009		5.09559432		7.27785340		-0.00012423		 0.00057656		 0.00010036
O		12.78168005		5.70410354		4.44978746		 0.00010095		 0.00034031		 0.00010237
O		5.56171841		1.02719546		7.25094363		-0.00010095		-0.00034031		-0.00010237
O		5.56171841		1.02719546		4.44978746		-0.00010095		-0.00034031		 0.00010237
O		12.78168005		5.70410354		7.25094363		 0.00010095		 0.00034031		-0.00010237
O		14.73341764		2.33845312		1.40057717		-0.00010095		 0.00034031		-0.00010237
O		3.60998082		4.39284588		10.30015209		 0.00010095		-0.00034031		 0.00010237
O		3.60998082		4.39284588		1.40057717		 0.00010095		-0.00034031		-0.00010237
O		14.73341764		2.33845312		10.30015209		-0.00010095		 0.00034031		 0.00010237
O		8.72595465		5.25647142		10.06964894		 0.00003167		 0.00000956		-0.00015299
O		9.61744381		1.47482758		1.63108215		-0.00003167		-0.00000956		 0.00015299
O		9.61744381		1.47482758		10.06964894		-0.00003167		-0.00000956		-0.00015299
O		8.72595465		5.25647142		1.63108215		 0.00003167		 0.00000956		 0.00015299
O		0.44574458		1.89082284		7.48144678		-0.00003167		 0.00000956		 0.00015299
O		17.89765388		4.84047800		4.21928248		 0.00003167		-0.00000956		-0.00015299
O		17.89765388		4.84047800		7.48144678		 0.00003167		-0.00000956		 0.00015299
O		0.44574458		1.89082284		4.21928248		-0.00003167		 0.00000956		-0.00015299
O		6.21712804		5.45302644		9.19911344		-0.00014001		 0.00028085		 0.00035824
O		12.12627042		1.27827440		2.50161582		 0.00014001		-0.00028085		-0.00035824
O		12.12627042		1.27827440		9.19911344		 0.00014001		-0.00028085		 0.00035824
O		6.21712804		5.45302644		2.50161582		-0.00014001		 0.00028085		-0.00035824
O		2.95457119		2.08737602		8.35198228		 0.00014001		 0.00028085		-0.00035824
O		15.38882727		4.64392298		3.34874881		-0.00014001		-0.00028085		 0.00035824
O		15.38882727		4.64392298		8.35198228		-0.00014001		-0.00028085		-0.00035824
O		2.95457119		2.08737602		3.34874881		 0.00014001		 0.00028085		 0.00035824
O		6.89711782		3.33805278		0.00000000		-0.00026370		 0.00081389		-0.00000000
O		11.44628064		3.39324806		0.00000000		 0.00026370		-0.00081389		-0.00000000
O		2.27458141		6.70370136		5.85036463		 0.00026370		 0.00081389		-0.00000000
O		16.06881705		0.02759764		5.85036463		-0.00026370		-0.00081389		-0.00000000
O		7.54830847		3.29497147		8.41399397		 0.00020311		-0.00027966		 0.00001532
O		10.79508999		3.43632937		3.28673528		-0.00020311		 0.00027966		-0.00001532
O		10.79508999		3.43632937		8.41399397		-0.00020311		 0.00027966		 0.00001532
O		7.54830847		3.29497147		3.28673528		 0.00020311		-0.00027966		-0.00001532
O		1.62339076		6.66062005		9.13709991		-0.00020311		-0.00027966		-0.00001532
O		16.72000770		0.07067895		2.56362934		 0.00020311		 0.00027966		 0.00001532
O		16.72000770		0.07067895		9.13709991		 0.00020311		 0.00027966		-0.00001532
O		1.62339076		6.66062005		2.56362934		-0.00020311		-0.00027966		 0.00001532
O		7.29700391		0.70342164		0.00000000		 0.00024918		 0.00003872		0.00000000
O		11.04639455		6.02787920		0.00000000		-0.00024918		-0.00003872		0.00000000
O		1.87469532		4.06907022		5.85036463		-0.00024918		 0.00003872		0.00000000
O		16.46870314		2.66222878		5.85036463		 0.00024918		-0.00003872		0.00000000
O		10.57313487		5.19521731		5.85036463		-0.00025667		 0.00050818		0.00000000
O		7.77026359		1.53608352		5.85036463		 0.00025667		-0.00050818		0.00000000
O		16.94196282		1.82956689		0.00000000		 0.00025667		 0.00050818		0.00000000
O		1.40143564		4.90173211		0.00000000		-0.00025667		-0.00050818		0.00000000
O		12.74132457		3.45046479		5.85036463		 0.00080703		 0.00003419		0.00000000
O		5.60207389		3.28083605		5.85036463		-0.00080703		-0.00003419		0.00000000
O		14.77377312		0.08481437		0.00000000		-0.00080703		 0.00003419		-0.00000000
O		3.56962534		6.64648463		0.00000000		 0.00080703		-0.00003419		-0.00000000
O		8.14997194		5.66102224		7.36678036		-0.00006983		-0.00028413		-0.00003474
O		10.19342652		1.07027677		4.33395073		 0.00006983		 0.00028413		 0.00003474
O		10.19342652		1.07027677		7.36678036		 0.00006983		 0.00028413		-0.00003474
O		8.14997194		5.66102224		4.33395073		-0.00006983		-0.00028413		 0.00003474
O		1.02172729		2.29537365		10.18431536		 0.00006983		-0.00028413		 0.00003474
O		17.32167117		4.43592535		1.51641573		-0.00006983		 0.00028413		-0.00003474
O		17.32167117		4.43592535		10.18431536		-0.00006983		 0.00028413		 0.00003474
O		1.02172729		2.29537365		1.51641573		 0.00006983		-0.00028413		-0.00003474
