# total energy = -8762.11770404 eV	

CRYSTAL	
PRIMVEC	
		3.04799982		0.00000000		0.00000000	
		-1.52399991		2.63964709		0.00000000	
		0.00000000		0.00000000		12.36199841	
PRIMCOORD
   11 1	
H		0.00000000		1.75976391		5.80643173		0.00000000		-0.00000000		-0.00013175	
H		1.52399991		0.87988196		6.55556851		0.00000000		-0.00000000		 0.00013175	
Mg		0.00000000		0.00000000		8.63732953		0.00000000		-0.00000000		-0.00030395	
Mg		0.00000000		0.00000000		3.72467071		0.00000000		0.00000000		 0.00030395	
Mg		1.52399991		0.87988196		11.12703636		0.00000000		-0.00000000		 0.00021481	
Mg		0.00000000		1.75976391		1.23496388		0.00000000		0.00000000		-0.00021481	
O		1.52399991		0.87988196		2.46992775		0.00000000		0.00000000		 0.00005093	
O		0.00000000		1.75976391		9.89207248		0.00000000		0.00000000		-0.00005093	
O		0.00000000		1.75976391		4.81623473		0.00000000		-0.00000000		-0.00000509	
O		1.52399991		0.87988196		7.54576459		0.00000000		0.00000000		 0.00000509	
O		0.00000000		0.00000000		0.00000000		-0.00000000		0.00000000		0.00000000	
