# total energy = -38094.9928688 eV

CRYSTAL
PRIMVEC
		5.69209984		0.00000000		0.00000000
		0.00000000		11.46000138		0.00000000
		0.00000000		0.00000000		7.63402232
PRIMECORD
   58 1
O		1.53572911		1.40843383		7.57982385		-0.00018434		-0.00049104		 0.00008406
O		4.15637074		10.05156584		0.05420074		 0.00018434		 0.00049104		-0.00008406
O		4.15637074		4.32156572		7.57982385		 0.00018434		 0.00049104		 0.00008406
O		1.53572911		7.13843395		0.05420074		-0.00018434		-0.00049104		-0.00008406
O		1.53572911		10.05156584		0.05420074		-0.00018434		 0.00049104		-0.00008406
O		4.15637074		1.40843383		7.57982385		 0.00018434		-0.00049104		 0.00008406
O		4.15637074		7.13843395		0.05420074		 0.00018434		-0.00049104		-0.00008406
O		1.53572911		4.32156572		7.57982385		-0.00018434		 0.00049104		 0.00008406
O		2.84604992		5.60966970		5.76826868		0.00000000		 0.00027496		 0.00028271
O		2.84604992		5.85032997		1.86575592		0.00000000		-0.00027496		-0.00028271
O		2.84604992		0.12032985		5.76826868		0.00000000		-0.00027496		 0.00028271
O		2.84604992		11.33966982		1.86575592		0.00000000		 0.00027496		-0.00028271
O		0.00000000		2.86500006		5.47206888		0.00000000		0.00000000		 0.00027781
O		0.00000000		8.59499961		2.16195572		0.00000000		0.00000000		-0.00027781
O		0.00000000		2.86500006		1.66956119		0.00000000		0.00000000		 0.00062594
O		0.00000000		8.59499961		5.96446398		0.00000000		0.00000000		-0.00062594
O		2.84604992		8.59499961		5.48657406		0.00000000		0.00000000		-0.00077980
O		2.84604992		2.86500006		2.14745111		0.00000000		0.00000000		 0.00077980
O		2.84604992		8.59499961		1.65505715		0.00000000		0.00000000		-0.00085105
O		2.84604992		2.86500006		5.97896858		0.00000000		0.00000000		 0.00085105
O		0.00000000		11.33966982		1.95125695		0.00000000		 0.00083714		-0.00007922
O		0.00000000		0.12032985		5.68276878		0.00000000		-0.00083714		 0.00007922
O		0.00000000		5.85032997		1.95125695		0.00000000		-0.00083714		-0.00007922
O		0.00000000		5.60966970		5.68276878		0.00000000		 0.00083714		 0.00007922
O		4.38177903		7.13843395		3.76281098		-0.00010018		 0.00002093		-0.00063356
O		1.31032081		4.32156572		3.87121361		 0.00010018		-0.00002093		 0.00063356
O		1.31032081		10.05156584		3.76281098		 0.00010018		-0.00002093		-0.00063356
O		4.38177903		1.40843383		3.87121361		-0.00010018		 0.00002093		 0.00063356
O		4.38177903		4.32156572		3.87121361		-0.00010018		-0.00002093		 0.00063356
O		1.31032081		7.13843395		3.76281098		 0.00010018		 0.00002093		-0.00063356
O		1.31032081		1.40843383		3.87121361		 0.00010018		 0.00002093		 0.00063356
O		4.38177903		10.05156584		3.76281098		-0.00010018		-0.00002093		-0.00063356
H		2.84604992		8.59499961		4.51552573		0.00000000		0.00000000		-0.00076068
H		2.84604992		2.86500006		3.11849887		0.00000000		0.00000000		 0.00076068
H		0.00000000		2.86500006		2.64060895		0.00000000		0.00000000		 0.00025973
H		0.00000000		8.59499961		4.99341565		0.00000000		0.00000000		-0.00025973
Mg		2.84604992		5.73000012		3.81701287		0.00000000		-0.00000000		0.00000000
Mg		2.84604992		0.00000000		3.81701287		0.00000000		0.00000000		0.00000000
Mg		0.00000000		0.00000000		0.00000000		0.00000000		0.00000000		0.00000000
Mg		0.00000000		5.73000012		0.00000000		0.00000000		-0.00000000		0.00000000
Mg		1.42302496		1.44854378		1.90850586		 0.00025534		-0.00018887		 0.00016659
Mg		4.26907488		10.01145589		5.72551873		-0.00025534		 0.00018887		-0.00016659
Mg		4.26907488		4.28145577		1.90850586		-0.00025534		 0.00018887		 0.00016659
Mg		1.42302496		7.17854390		5.72551873		 0.00025534		-0.00018887		-0.00016659
Mg		1.42302496		10.01145589		5.72551873		 0.00025534		 0.00018887		-0.00016659
Mg		4.26907488		1.44854378		1.90850586		-0.00025534		-0.00018887		 0.00016659
Mg		4.26907488		7.17854390		5.72551873		-0.00025534		-0.00018887		-0.00016659
Mg		1.42302496		4.28145577		1.90850586		 0.00025534		 0.00018887		 0.00016659
Mg		0.00000000		2.86500006		7.40576798		0.00000000		0.00000000		 0.00036447
Mg		0.00000000		8.59499961		0.22825719		0.00000000		0.00000000		-0.00036447
Si		2.84604992		7.10634588		0.89012716		0.00000000		 0.00032189		 0.00041211
Si		2.84604992		4.35365379		6.74389801		0.00000000		-0.00032189		-0.00041211
Si		2.84604992		10.08365392		0.89012716		0.00000000		-0.00032189		 0.00041211
Si		2.84604992		1.37634576		6.74389801		0.00000000		 0.00032189		-0.00041211
Si		0.00000000		1.37634576		4.70714003		0.00000000		 0.00025491		 0.00059604
Si		0.00000000		10.08365392		2.92688514		0.00000000		-0.00025491		-0.00059604
Si		0.00000000		4.35365379		4.70714003		0.00000000		-0.00025491		 0.00059604
Si		0.00000000		7.10634588		2.92688514		0.00000000		 0.00025491		-0.00059604
