# total energy = -38097.1781147 eV

CRYSTAL
PRIMVEC
		5.69209984		0.00000000		0.00000000
		0.00000000		11.46000138		0.00000000
		0.00000000		0.00000000		8.87197434
PRIMECORD
   58 1
O		1.53572911		1.40843383		8.80898386		 0.00045400		-0.00018229		-0.00006063
O		4.15637074		10.05156584		0.06299105		-0.00045400		 0.00018229		 0.00006063
O		4.15637074		4.32156572		8.80898386		-0.00045400		 0.00018229		-0.00006063
O		1.53572911		7.13843395		0.06299105		 0.00045400		-0.00018229		 0.00006063
O		1.53572911		10.05156584		0.06299105		 0.00045400		 0.00018229		 0.00006063
O		4.15637074		1.40843383		8.80898386		-0.00045400		-0.00018229		-0.00006063
O		4.15637074		7.13843395		0.06299105		-0.00045400		-0.00018229		 0.00006063
O		1.53572911		4.32156572		8.80898386		 0.00045400		 0.00018229		-0.00006063
O		2.84604992		5.60966970		6.70366397		0.00000000		 0.00004400		 0.00013461
O		2.84604992		5.85032997		2.16831095		0.00000000		-0.00004400		-0.00013461
O		2.84604992		0.12032985		6.70366397		0.00000000		-0.00004400		 0.00013461
O		2.84604992		11.33966982		2.16831095		0.00000000		 0.00004400		-0.00013461
O		0.00000000		2.86500006		6.35943195		0.00000000		0.00000000		 0.00009584
O		0.00000000		8.59499961		2.51254410		0.00000000		0.00000000		-0.00009584
O		0.00000000		2.86500006		1.94030080		0.00000000		0.00000000		-0.00024235
O		0.00000000		8.59499961		6.93167355		0.00000000		0.00000000		 0.00024235
O		2.84604992		8.59499961		6.37628911		0.00000000		0.00000000		 0.00052971
O		2.84604992		2.86500006		2.49568695		0.00000000		0.00000000		-0.00052971
O		2.84604992		8.59499961		1.92344421		0.00000000		0.00000000		 0.00006957
O		2.84604992		2.86500006		6.94853070		0.00000000		0.00000000		-0.00006957
O		0.00000000		11.33966982		2.26767680		0.00000000		-0.00008309		 0.00021129
O		0.00000000		0.12032985		6.60429869		0.00000000		 0.00008309		-0.00021129
O		0.00000000		5.85032997		2.26767680		0.00000000		 0.00008309		 0.00021129
O		0.00000000		5.60966970		6.60429869		0.00000000		-0.00008309		-0.00021129
O		4.38177903		7.13843395		4.37299669		 0.00028584		-0.00007112		 0.00019388
O		1.31032081		4.32156572		4.49897880		-0.00028584		 0.00007112		-0.00019388
O		1.31032081		10.05156584		4.37299669		-0.00028584		 0.00007112		 0.00019388
O		4.38177903		1.40843383		4.49897880		 0.00028584		-0.00007112		-0.00019388
O		4.38177903		4.32156572		4.49897880		 0.00028584		 0.00007112		-0.00019388
O		1.31032081		7.13843395		4.37299669		-0.00028584		-0.00007112		 0.00019388
O		1.31032081		1.40843383		4.49897880		-0.00028584		-0.00007112		-0.00019388
O		4.38177903		10.05156584		4.37299669		 0.00028584		 0.00007112		 0.00019388
H		2.84604992		8.59499961		5.24777282		0.00000000		0.00000000		 0.00038610
H		2.84604992		2.86500006		3.62420209		0.00000000		0.00000000		-0.00038610
H		0.00000000		2.86500006		3.06881594		0.00000000		0.00000000		-0.00004552
H		0.00000000		8.59499961		5.80315897		0.00000000		0.00000000		 0.00004552
Mg		2.84604992		5.73000012		4.43598774		0.00000000		0.00000000		0.00000000
Mg		2.84604992		0.00000000		4.43598774		0.00000000		0.00000000		0.00000000
Mg		0.00000000		0.00000000		0.00000000		0.00000000		0.00000000		-0.00000000
Mg		0.00000000		5.73000012		0.00000000		0.00000000		-0.00000000		-0.00000000
Mg		1.42302496		1.44854378		2.21799387		 0.00022507		-0.00014715		 0.00011892
Mg		4.26907488		10.01145589		6.65398104		-0.00022507		 0.00014715		-0.00011892
Mg		4.26907488		4.28145577		2.21799387		-0.00022507		 0.00014715		 0.00011892
Mg		1.42302496		7.17854390		6.65398104		 0.00022507		-0.00014715		-0.00011892
Mg		1.42302496		10.01145589		6.65398104		 0.00022507		 0.00014715		-0.00011892
Mg		4.26907488		1.44854378		2.21799387		-0.00022507		-0.00014715		 0.00011892
Mg		4.26907488		7.17854390		6.65398104		-0.00022507		-0.00014715		-0.00011892
Mg		1.42302496		4.28145577		2.21799387		 0.00022507		 0.00014715		 0.00011892
Mg		0.00000000		2.86500006		8.60670257		0.00000000		0.00000000		 0.00007473
Mg		0.00000000		8.59499961		0.26527178		0.00000000		0.00000000		-0.00007473
Si		2.84604992		7.10634588		1.03447198		0.00000000		-0.00001802		-0.00002525
Si		2.84604992		4.35365379		7.83750293		0.00000000		 0.00001802		 0.00002525
Si		2.84604992		10.08365392		1.03447198		0.00000000		 0.00001802		-0.00002525
Si		2.84604992		1.37634576		7.83750293		0.00000000		-0.00001802		 0.00002525
Si		0.00000000		1.37634576		5.47045972		0.00000000		 0.00005836		 0.00009599
Si		0.00000000		10.08365392		3.40151576		0.00000000		-0.00005836		-0.00009599
Si		0.00000000		4.35365379		5.47045972		0.00000000		-0.00005836		 0.00009599
Si		0.00000000		7.10634588		3.40151576		0.00000000		 0.00005836		-0.00009599
