# total energy = -22449.246986 eV

CRYSTAL
PRIMVEC
		9.05299733		-0.72423797		0.00000000
		-0.61415598		7.67700422		0.00000000
		-0.52464454		0.04196757		4.72194620
PRIMECORD
   40 1
Ca		6.60415663		-0.01345214		0.42544724		-0.00017331		 0.00035313		 0.00016102
Ca		1.31003928		7.00818324		4.29649624		 0.00017331		-0.00035313		-0.00016102
Ca		1.79652975		4.18509192		1.93552495		 0.00061669		-0.00056711		 0.00038669
Ca		6.11766706		2.80963918		2.78641852		-0.00061669		 0.00056711		-0.00038669
Mg		1.87850592		1.10145293		1.90388807		-0.00003387		 0.00020298		-0.00011205
Mg		6.03569090		5.89327908		2.81805631		 0.00003387		-0.00020298		 0.00011205
Mg		6.40352514		4.55338479		0.45708412		-0.00002106		-0.00026013		-0.00010522
Mg		1.51067077		2.44134721		4.26485936		 0.00002106		 0.00026013		 0.00010522
Si		4.27956935		0.92385955		2.18484282		-0.00065947		 0.00047417		 0.00008013
Si		3.63462656		6.07087064		2.53709974		 0.00065947		-0.00047417		-0.00008013
Si		4.00012765		4.76014931		0.17612755		-0.00040014		 0.00009246		-0.00017242
Si		3.91406825		2.23458179		4.54581501		 0.00040014		-0.00009246		 0.00017242
Si		-0.37679265		6.54663082		1.24376031		 0.00008627		 0.00007920		 0.00023638
Si		8.29098946		0.44810119		3.47818407		-0.00008627		-0.00007920		-0.00023638
Si		8.42519758		2.02853838		1.11721188		 0.00008817		 0.00020823		-0.00026356
Si		-0.51100168		4.96619362		3.60473068		-0.00008817		-0.00020823		 0.00026356
O		3.40095685		1.01932056		0.53310708		-0.00003655		 0.00028036		 0.00014394
O		4.51323997		5.97540963		4.18883549		 0.00003655		-0.00028036		-0.00014394
O		4.87468689		4.71535726		1.82786420		 0.00017144		-0.00030973		 0.00001041
O		3.03950901		2.27937474		2.89407927		-0.00017144		 0.00030973		-0.00001041
O		3.20077582		3.42896096		0.40467143		 0.00013258		 0.00050397		 0.00012790
O		4.71342009		3.56577105		4.31727295		-0.00013258		-0.00050397		-0.00012790
O		4.68942110		7.12380248		1.95630076		-0.00073487		 0.00044126		-0.00094219
O		3.22477571		-0.12907139		2.76564180		 0.00073487		-0.00044126		 0.00094219
O		5.25090829		1.81641826		1.26217572		 0.00002982		 0.00013672		 0.00016011
O		2.66328853		5.17831284		3.45976775		-0.00002982		-0.00013672		-0.00016011
O		2.87254694		5.82062096		1.09879556		 0.00041579		 0.00049704		 0.00003169
O		5.04164897		1.17411104		3.62314701		-0.00041579		-0.00049704		-0.00003169
O		0.96037070		2.60512789		1.02371711		-0.00000482		 0.00001177		-0.00025672
O		6.95382521		4.38960321		3.69822636		 0.00000482		-0.00001177		 0.00025672
O		7.09135004		5.92858414		1.33725417		-0.00032927		 0.00043981		-0.00018320
O		0.82284586		1.06614786		3.38468930		 0.00032927		-0.00043981		 0.00018320
O		0.83421098		0.15370883		0.93636082		 0.00032633		-0.00065748		 0.00033507
O		7.07998583		6.84102318		3.78558174		-0.00032633		 0.00065748		-0.00033507
O		7.61388849		3.42526825		1.42460955		 0.00036430		 0.00048943		 0.00043370
O		0.30030742		3.56946376		3.29733301		-0.00036430		-0.00048943		-0.00043370
O		0.50763228		5.36754652		0.32817530		 0.00012083		-0.00057946		 0.00033533
O		7.40656362		1.62718367		4.39376818		-0.00012083		 0.00057946		-0.00033533
O		7.71924697		0.97668365		2.03279689		 0.00017358		-0.00000831		-0.00052347
O		0.19494893		6.01804654		2.68914658		-0.00017358		 0.00000831		 0.00052347
