# total energy = -22445.8986811 eV

CRYSTAL
PRIMVEC
		9.05300144		1.08635798		0.00000000
		0.92124105		7.67700270		0.00000000
		-0.52464676		-0.06295943		4.72193939
PRIMECORD
   40 1
Ca		6.70779668		1.31567074		0.42544713		-0.00007859		 0.00020583		 0.00004351
Ca		2.74179996		7.38473233		4.29649591		 0.00007859		-0.00020583		-0.00004351
Ca		2.66786890		4.61410506		1.93552530		-0.00039764		 0.00014158		 0.00028594
Ca		6.78172683		4.08629710		2.78641865		 0.00039764		-0.00014158		-0.00028594
Mg		2.13046522		1.49731122		1.90388784		 0.00019353		 0.00005900		 0.00066064
Mg		7.31913142		7.20309185		2.81805610		-0.00019353		-0.00005900		-0.00066064
Mg		7.42318363		5.91566213		0.45708367		-0.00033114		 0.00063449		-0.00017586
Mg		2.02641210		2.78474003		4.26485936		 0.00033114		-0.00063449		 0.00017586
Si		4.53444610		1.80016388		2.18484284		-0.00011922		-0.00010896		 0.00005671
Si		4.91515054		6.90023828		2.53710019		 0.00011922		 0.00010896		-0.00005671
Si		5.02270404		5.64198143		0.17612777		 0.00006242		-0.00057029		 0.00011602
Si		4.42689169		3.05842164		4.54581527		-0.00006242		 0.00057029		-0.00011602
Si		0.93489883		6.57620735		1.24376022		-0.00001386		 0.00059118		-0.00019466
Si		8.51469690		2.12419481		3.47818373		 0.00001386		-0.00059118		 0.00019466
Si		8.96919017		3.75709722		1.11721221		 0.00001272		 0.00055574		 0.00039424
Si		0.48040556		4.94330586		3.60473082		-0.00001272		-0.00055574		-0.00039424
O		3.66090012		1.72030798		0.53310731		-0.00019043		-0.00022607		-0.00025257
O		5.78869561		6.98009418		4.18883573		 0.00019043		 0.00022607		 0.00025257
O		5.90232986		5.77250578		1.82786421		-0.00010387		-0.00018712		 0.00005203
O		3.54726587		2.92789729		2.89407882		 0.00010387		 0.00018712		-0.00005203
O		3.94252802		4.12845576		0.40467097		-0.00016219		-0.00001971		 0.00027142
O		5.50706862		4.57194731		4.31727298		 0.00016219		 0.00001971		-0.00027142
O		6.19887291		8.18244341		1.95630055		 0.00003810		-0.00000249		 0.00006489
O		3.25072374		0.51795966		2.76564158		-0.00003810		 0.00000249		-0.00006489
O		5.70108671		2.90261414		1.26217574		-0.00054430		 0.00013693		-0.00001158
O		3.74850993		5.79778894		3.45976821		 0.00054430		-0.00013693		 0.00001158
O		4.09042662		6.49256021		1.09879578		 0.00016122		-0.00004763		-0.00024548
O		5.35917002		2.20784287		3.62314726		-0.00016122		 0.00004763		 0.00024548
O		1.50021802		2.84038961		1.02371677		 0.00048605		-0.00038662		 0.00018379
O		7.94937862		5.86001255		3.69822627		-0.00048605		 0.00038662		-0.00018379
O		8.39889713		7.45145656		1.33725384		 0.00028853		 0.00037427		 0.00061685
O		1.05070042		1.24894468		3.38468919		-0.00028853		-0.00037427		-0.00061685
O		0.87858364		0.32410022		0.93636135		-0.00008779		 0.00022457		-0.00025370
O		8.57101300		8.37630194		3.78558169		 0.00008779		-0.00022457		 0.00025370
O		8.42596194		5.01301166		1.42461017		 0.00008570		-0.00063594		-0.00028093
O		1.02363379		3.68739141		3.29733286		-0.00008570		 0.00063594		 0.00028093
O		1.59623093		5.55616239		0.32817503		 0.00018825		 0.00070342		-0.00004918
O		7.85336480		3.14424068		4.39376801		-0.00018825		-0.00070342		 0.00004918
O		8.04014597		2.54620629		2.03279740		 0.00002465		 0.00026050		 0.00006122
O		1.40945067		6.15419678		2.68914655		-0.00002465		-0.00026050		-0.00006122
