# total energy = -14249.64269 eV

CRYSTAL
PRIMVEC
		7.72999786		0.00000000		-0.61839828
		0.00000000		7.72999786		0.00000000
		-0.40080149		0.00000000		5.00999927
PRIMECORD
   24 1
Ca		2.34649208		1.31410002		2.35102781		-0.00032681		-0.00015958		-0.00003036
Ca		4.97469213		6.41590016		2.14077239		-0.00033358		 0.00008567		-0.00041676
Ca		1.11770768		5.17909973		2.34977232		 0.00032681		-0.00015958		 0.00003036
Ca		6.21950782		2.55089968		1.94162791		 0.00033358		 0.00008567		 0.00041676
Si		0.70144022		2.78280001		4.67292432		 0.00009262		 0.00020693		-0.00009629
Si		6.26704023		4.94720018		4.22767601		 0.00012790		 0.00054185		-0.00011057
Si		2.76276032		6.64779971		0.02787581		-0.00009262		 0.00020693		 0.00009629
Si		4.92715972		1.08219970		-0.14527571		-0.00012790		 0.00054185		 0.00011057
Mg		0.00000000		0.00000000		0.00000000		-0.00037300		-0.00049618		 0.00022167
Mg		3.86499971		3.86499971		-0.30919991		 0.00037300		-0.00049618		-0.00022167
O		3.78884781		0.00000000		0.64269995		 0.00050443		-0.00027202		 0.00014604
O		-0.32464805		3.86499971		4.05810018		-0.00050443		-0.00027202		-0.00014604
O		0.97799209		2.78280001		1.21602405		 0.00009380		-0.00000163		-0.00008963
O		6.54359210		4.94720018		0.77077574		-0.00033747		 0.00052525		 0.00010161
O		2.48620768		6.64779971		3.48477608		-0.00009380		-0.00000163		 0.00008963
O		4.65060785		1.08219970		3.31162378		 0.00033747		 0.00052525		-0.00010161
O		0.29375178		1.39140039		4.00862832		 0.00062203		 0.00000497		-0.00016879
O		6.78695231		6.33859980		3.48917221		 0.00058705		 0.00015919		-0.00025278
O		1.31524772		7.11160036		0.84058817		-0.00034790		-0.00033375		-0.00064905
O		6.26244790		0.61839983		0.44481172		-0.00058898		-0.00026072		 0.00048660
O		3.17044798		5.25640010		0.69217181		-0.00062203		 0.00000497		 0.00016879
O		4.40724764		2.47360009		0.59322808		-0.00058705		 0.00015919		 0.00025278
O		2.14895205		3.24659988		3.86021196		 0.00034790		-0.00033375		 0.00064905
O		4.93175205		4.48340031		3.63758780		 0.00058898		-0.00026072		-0.00048660
