# total energy = -14248.690372 eV

CRYSTAL
PRIMVEC
		7.73000130		0.00000000		-0.92759829
		0.00000000		7.73000130		0.00000000
		-0.60120078		0.00000000		5.00999615
PRIMECORD
   24 1
Ca		2.24428803		1.31410030		2.24899200		 0.00072361		-0.00052363		-0.00006508
Ca		4.87248785		6.41590022		1.93360781		 0.00058502		-0.00024374		 0.00027382
Ca		1.01951184		5.17910017		2.29720812		-0.00072361		-0.00052363		 0.00006508
Ca		6.12131176		2.55090035		1.68499169		-0.00058502		-0.00024374		-0.00027382
Si		0.51105998		2.78280031		4.62963609		 0.00049231		-0.00021589		 0.00001795
Si		6.07665983		4.94720021		3.96176376		 0.00058820		-0.00033822		-0.00056657
Si		2.75273988		6.64780018		-0.08343597		-0.00049231		-0.00021589		-0.00001795
Si		4.91713978		1.08220034		-0.34316426		-0.00058820		-0.00033822		 0.00056657
Mg		0.00000000		0.00000000		0.00000000		-0.00035174		 0.00046809		-0.00034172
Mg		3.86499987		3.86499987		-0.46379992		 0.00035174		 0.00046809		 0.00034172
O		3.75077165		0.00000000		0.48809989		-0.00046717		-0.00025663		 0.00015433
O		-0.48697178		3.86499987		4.05810023		 0.00046717		-0.00025663		-0.00015433
O		0.92588782		2.78280031		1.17273586		-0.00006826		 0.00028345		 0.00003335
O		6.49148767		4.94720021		0.50486432		 0.00039776		 0.00037104		-0.00050572
O		2.33791204		6.64780018		3.37346426		 0.00006826		 0.00028345		-0.00003335
O		4.50231194		1.08220034		3.11373596		-0.00039776		 0.00037104		 0.00050572
O		0.13142786		1.39139977		3.98389237		-0.00028585		 0.00010121		 0.00013701
O		6.62462833		6.33859998		3.20470825		 0.00047418		-0.00024843		 0.00001724
O		1.27717232		7.11160011		0.78493212		-0.00008817		 0.00059274		 0.00031102
O		6.22437175		0.61839964		0.19126766		-0.00045653		 0.00001003		-0.00030703
O		3.13237201		5.25640042		0.56230775		 0.00028585		 0.00010121		-0.00013701
O		4.36917206		2.47360010		0.41389203		-0.00047418		-0.00024843		-0.00001724
O		1.98662833		3.24660024		3.76126800		 0.00008817		 0.00059274		-0.00031102
O		4.76942786		4.48340029		3.42733184		 0.00045653		 0.00001003		 0.00030703
