# total energy = -38098.2861518 eV

CRYSTAL
PRIMVEC
		5.97670510		0.00000000		0.00000000
		0.00000000		11.45999733		0.00000000
		0.00000000		0.00000000		8.25299898
PRIMECORD
   58 1
O		1.61251504		1.40843387		8.19440396		-0.00067684		 0.00012965		-0.00010493
O		4.36419006		10.05156646		0.05859621		 0.00067684		-0.00012965		 0.00010493
O		4.36419006		4.32156600		8.19440396		 0.00067684		-0.00012965		-0.00010493
O		1.61251504		7.13843433		0.05859621		-0.00067684		 0.00012965		 0.00010493
O		1.61251504		10.05156646		0.05859621		-0.00067684		-0.00012965		 0.00010493
O		4.36419006		1.40843387		8.19440396		 0.00067684		 0.00012965		-0.00010493
O		4.36419006		7.13843433		0.05859621		 0.00067684		 0.00012965		 0.00010493
O		1.61251504		4.32156600		8.19440396		-0.00067684		-0.00012965		-0.00010493
O		2.98835315		5.60967026		6.23596740		0.00000000		 0.00040524		-0.00036981
O		2.98835315		5.85033006		2.01703278		0.00000000		-0.00040524		 0.00036981
O		2.98835315		0.12033020		6.23596740		0.00000000		-0.00040524		-0.00036981
O		2.98835315		11.33967012		2.01703278		0.00000000		 0.00040524		 0.00036981
O		0.00000000		2.86499993		5.91574988		0.00000000		0.00000000		-0.00014812
O		0.00000000		8.59500039		2.33725030		0.00000000		0.00000000		 0.00014812
O		0.00000000		2.86499993		1.80493087		0.00000000		0.00000000		 0.00018881
O		0.00000000		8.59500039		6.44806930		0.00000000		0.00000000		-0.00018881
O		2.98835315		8.59500039		5.93143096		0.00000000		0.00000000		 0.00031249
O		2.98835315		2.86499993		2.32156922		0.00000000		0.00000000		-0.00031249
O		2.98835315		8.59500039		1.78924979		0.00000000		0.00000000		 0.00030175
O		2.98835315		2.86499993		6.46375038		0.00000000		0.00000000		-0.00030175
O		0.00000000		11.33967012		2.10946731		0.00000000		 0.00015639		 0.00002626
O		0.00000000		0.12033020		6.14353407		0.00000000		-0.00015639		-0.00002626
O		0.00000000		5.85033006		2.10946731		0.00000000		-0.00015639		 0.00002626
O		0.00000000		5.60967026		6.14353407		0.00000000		 0.00015639		-0.00002626
O		4.60086818		7.13843433		4.06790387		-0.00058188		-0.00008353		-0.00008266
O		1.37583692		4.32156600		4.18509630		 0.00058188		 0.00008353		 0.00008266
O		1.37583692		10.05156646		4.06790387		 0.00058188		 0.00008353		-0.00008266
O		4.60086818		1.40843387		4.18509630		-0.00058188		-0.00008353		 0.00008266
O		4.60086818		4.32156600		4.18509630		-0.00058188		 0.00008353		 0.00008266
O		1.37583692		7.13843433		4.06790387		 0.00058188		-0.00008353		-0.00008266
O		1.37583692		1.40843387		4.18509630		 0.00058188		-0.00008353		 0.00008266
O		4.60086818		10.05156646		4.06790387		-0.00058188		 0.00008353		-0.00008266
H		2.98835315		8.59500039		4.88165020		0.00000000		0.00000000		 0.00060690
H		2.98835315		2.86499993		3.37135117		0.00000000		0.00000000		-0.00060690
H		0.00000000		2.86499993		2.85471283		0.00000000		0.00000000		 0.00002916
H		0.00000000		8.59500039		5.39828735		0.00000000		0.00000000		-0.00002916
Mg		2.98835315		5.72999986		4.12650009		0.00000000		0.00000000		0.00000000
Mg		2.98835315		0.00000000		4.12650009		0.00000000		0.00000000		0.00000000
Mg		0.00000000		0.00000000		0.00000000		0.00000000		0.00000000		0.00000000
Mg		0.00000000		5.72999986		0.00000000		0.00000000		0.00000000		0.00000000
Mg		1.49417628		1.44854413		2.06325004		-0.00035094		-0.00009172		-0.00008306
Mg		4.48252883		10.01145619		6.18975013		 0.00035094		 0.00009172		 0.00008306
Mg		4.48252883		4.28145633		2.06325004		 0.00035094		 0.00009172		-0.00008306
Mg		1.49417628		7.17854399		6.18975013		-0.00035094		-0.00009172		 0.00008306
Mg		1.49417628		10.01145619		6.18975013		-0.00035094		 0.00009172		 0.00008306
Mg		4.48252883		1.44854413		2.06325004		 0.00035094		-0.00009172		-0.00008306
Mg		4.48252883		7.17854399		6.18975013		 0.00035094		-0.00009172		 0.00008306
Mg		1.49417628		4.28145633		2.06325004		-0.00035094		 0.00009172		-0.00008306
Mg		0.00000000		2.86499993		8.00623517		0.00000000		0.00000000		-0.00004601
Mg		0.00000000		8.59500039		0.24676500		0.00000000		0.00000000		 0.00004601
Si		2.98835315		7.10634599		0.96229973		0.00000000		-0.00024513		 0.00013244
Si		2.98835315		4.35365433		7.29070105		0.00000000		 0.00024513		-0.00013244
Si		2.98835315		10.08365419		0.96229973		0.00000000		 0.00024513		 0.00013244
Si		2.98835315		1.37634613		7.29070105		0.00000000		-0.00024513		-0.00013244
Si		0.00000000		1.37634613		5.08879981		0.00000000		-0.00022476		-0.00045838
Si		0.00000000		10.08365419		3.16419977		0.00000000		 0.00022476		 0.00045838
Si		0.00000000		4.35365433		5.08879981		0.00000000		 0.00022476		-0.00045838
Si		0.00000000		7.10634599		3.16419977		0.00000000		-0.00022476		 0.00045838
