# total energy = -4138.5753106 eV	

CRYSTAL	
PRIMVEC	
		3.30778802		0.52924756		0.00000000	
		-1.19555459		2.60000638		0.00000000	
		0.00000000		0.00000000		4.98288161	
PRIMCOORD
   4 1	
Mg		0.30556006		1.90975188		0.01076209		 0.00058238		-0.00090523		 0.00050312	
Mg		1.80667303		1.21949905		2.50220189		-0.00058238		 0.00090523		 0.00050312	
O		0.30556006		1.90975188		2.00531196		-0.00089819		 0.00006742		-0.00050312	
O		1.80667303		1.21949905		4.49675277		 0.00089819		-0.00006742		-0.00050312	
