# total energy = -4139.18636236 eV	

CRYSTAL	
PRIMVEC	
		3.30778698		-0.13231135		0.00000000	
		-1.76847913		2.93078174		0.00000000	
		0.00000000		0.00000000		4.98288214	
PRIMCOORD
   4 1	
Mg		-0.07638987		1.90975182		0.01076188		-0.00031381		-0.00013752		-0.00056935	
Mg		1.61569806		0.88871990		2.50220196		 0.00031381		 0.00013752		-0.00056935	
O		-0.07638987		1.90975182		2.00531207		 0.00039517		-0.00007033		 0.00056935	
O		1.61569806		0.88871990		4.49675281		-0.00039517		 0.00007033		 0.00056935	
