# total energy = -4139.18641011 eV	

CRYSTAL	
PRIMVEC	
		3.30778698		0.13231135		0.00000000	
		-1.53930785		2.79847040		0.00000000	
		0.00000000		0.00000000		4.98288214	
PRIMCOORD
   4 1	
Mg		0.07638987		1.90975182		0.01076188		 0.00039021		 0.00003505		-0.00056679	
Mg		1.69208793		1.02103191		2.50220196		-0.00039021		-0.00003505		-0.00056679	
O		0.07638987		1.90975182		2.00531207		-0.00047105		-0.00013494		 0.00056679	
O		1.69208793		1.02103191		4.49675281		 0.00047105		 0.00013494		 0.00056679	
