# total energy = -4139.06507091 eV	

CRYSTAL	
PRIMVEC	
		3.30778590		-0.26462221		0.00000000	
		-1.88306351		2.99693901		0.00000000	
		0.00000000		0.00000000		4.98288148	
PRIMCOORD
   4 1	
Mg		-0.15278004		1.90975205		0.01076209		-0.00084227		-0.00007328		 0.00026882	
Mg		1.57750276		0.82256409		2.50220183		 0.00084227		 0.00007328		 0.00026882	
O		-0.15278004		1.90975205		2.00531204		 0.00039056		 0.00028237		-0.00026882	
O		1.57750276		0.82256409		4.49675278		-0.00039056		-0.00028237		-0.00026882	
