# total energy = -4138.86078439 eV	

CRYSTAL	
PRIMVEC	
		3.30778721		0.39693367		0.00000000	
		-1.31013929		2.66616024		0.00000000	
		0.00000000		0.00000000		4.98288093	
PRIMCOORD
   4 1	
Mg		0.22917010		1.90975183		0.01076213		 0.00082034		-0.00047109		 0.00045120	
Mg		1.76847782		1.15334275		2.50220194		-0.00082034		 0.00047109		 0.00045120	
O		0.22917010		1.90975183		2.00531175		-0.00073118		 0.00022441		-0.00045120	
O		1.76847782		1.15334275		4.49675255		 0.00073118		-0.00022441		-0.00045120	
