# total energy = -24715.2582318 eV

CRYSTAL
PRIMVEC
		8.81302504		0.00000000		0.00000000
		0.00000000		8.69500101		0.00000000
		0.00000000		0.00000000		5.08900199
PRIMECORD
   40 1
O		1.06637603		0.75124781		0.29974244		 0.00032474		-0.00052509		-0.00014723
O		1.06637603		7.94375143		2.84424167		 0.00032474		 0.00052509		-0.00014723
O		5.47288767		5.09874832		2.24475768		 0.00032474		-0.00052509		 0.00014723
O		5.47288767		3.59625181		4.78925779		 0.00032474		 0.00052509		 0.00014723
O		3.32162914		2.13896965		0.53739800		 0.00036839		-0.00023580		-0.00056748
O		3.32162914		6.55602960		3.08189899		 0.00036839		 0.00023580		-0.00056748
O		7.72814078		6.48647015		2.00710212		 0.00036839		-0.00023580		 0.00056748
O		7.72814078		2.20852997		4.55160223		 0.00036839		 0.00023580		 0.00056748
O		3.15330036		8.35502535		1.40456441		-0.00038966		-0.00077693		-0.00073011
O		3.15330036		0.33997390		3.94906364		-0.00038966		 0.00077693		-0.00073011
O		7.55981288		4.00752484		1.13993571		-0.00038966		-0.00077693		 0.00073011
O		7.55981288		4.68747440		3.68443582		-0.00038966		 0.00077693		 0.00073011
O		7.74136120		7.90114575		4.45338371		 0.00004889		 0.00028265		-0.00007474
O		7.74136120		0.79385438		1.90888360		 0.00004889		-0.00028265		-0.00007474
O		3.33484868		3.55364612		3.18011575		 0.00004889		 0.00028265		 0.00007474
O		3.33484868		5.14135312		0.63561564		 0.00004889		-0.00028265		 0.00007474
O		5.47641288		6.61080784		4.87882545		 0.00042535		-0.00035569		-0.00069378
O		5.47641288		2.08419229		2.33432445		 0.00042535		 0.00035569		-0.00069378
O		1.06990124		2.26330821		2.75467578		 0.00042535		-0.00035569		 0.00069378
O		1.06990124		6.43169103		0.21017567		 0.00042535		 0.00035569		 0.00069378
O		5.69673939		8.27503128		2.86103577		-0.00070269		 0.00016245		 0.00003392
O		5.69673939		0.41996884		0.31653566		-0.00070269		-0.00016245		 0.00003392
O		1.29022687		3.92753078		4.77246369		-0.00070269		 0.00016245		-0.00003392
O		1.29022687		4.76746935		2.22796358		-0.00070269		-0.00016245		-0.00003392
Si		2.61482365		0.77124633		0.34808805		-0.00072516		 0.00017643		-0.00006874
Si		2.61482365		7.92375292		2.89258817		-0.00072516		-0.00017643		-0.00006874
Si		7.02133705		5.11874595		2.19641295		-0.00072516		 0.00017643		 0.00006874
Si		7.02133705		3.57625329		4.74091218		-0.00072516		-0.00017643		 0.00006874
Si		6.18586228		7.91592695		4.38671758		 0.00070610		-0.00045683		 0.00010619
Si		6.18586228		0.77907229		1.84221835		 0.00070610		 0.00045683		 0.00010619
Si		1.77934976		3.56842821		3.24678188		 0.00070610		-0.00045683		-0.00010619
Si		1.77934976		5.12657192		0.70228176		 0.00070610		 0.00045683		-0.00010619
Mg		8.79099248		0.83558934		3.64372405		-0.00001243		 0.00011672		-0.00035426
Mg		8.79099248		7.85940990		1.09922394		-0.00001243		-0.00011672		-0.00035426
Mg		4.38447996		5.18308897		3.98977629		-0.00001243		 0.00011672		 0.00035426
Mg		4.38447996		3.51191028		1.44527618		-0.00001243		-0.00011672		 0.00035426
Mg		0.05287815		2.28417569		1.09464381		-0.00004351		-0.00003005		-0.00003350
Mg		0.05287815		6.41082443		3.63914392		-0.00004351		 0.00003005		-0.00003350
Mg		4.45938979		6.63167620		1.44985631		-0.00004351		-0.00003005		 0.00003350
Mg		4.45938979		2.06332393		3.99435642		-0.00004351		 0.00003005		 0.00003350
