# total energy = -24715.2477748 eV

CRYSTAL
PRIMVEC
		9.94289986		0.00000000		0.00000000
		0.00000000		8.69499632		0.00000000
		0.00000000		0.00000000		5.08900483
PRIMECORD
   40 1
O		1.20309088		0.75124773		0.29974164		 0.00002772		-0.00029224		-0.00092466
O		1.20309088		7.94375058		2.84424207		 0.00002772		 0.00029224		-0.00092466
O		6.17454081		5.09874788		2.24475779		 0.00002772		-0.00029224		 0.00092466
O		6.17454081		3.59625242		4.78925822		 0.00002772		 0.00029224		 0.00092466
O		3.74747896		2.13897031		0.53739783		 0.00074147		 0.00027685		-0.00010358
O		3.74747896		6.55602999		3.08189925		 0.00074147		-0.00027685		-0.00010358
O		8.71892789		6.48646947		2.00710161		 0.00074147		 0.00027685		 0.00010358
O		8.71892789		2.20852984		4.55160203		 0.00074147		-0.00027685		 0.00010358
O		3.55756957		8.35502471		1.40456386		-0.00020626		 0.00051123		-0.00018155
O		3.55756957		0.33997360		3.94906429		-0.00020626		-0.00051123		-0.00018155
O		8.52901850		4.00752456		1.13993557		-0.00020626		 0.00051123		 0.00018155
O		8.52901850		4.68747375		3.68443600		-0.00020626		-0.00051123		 0.00018155
O		8.73384323		7.90114625		4.45338408		-0.00019401		-0.00000518		 0.00036495
O		8.73384323		0.79385405		1.90888365		-0.00019401		 0.00000518		 0.00036495
O		3.76239331		3.55364610		3.18011621		-0.00019401		-0.00000518		-0.00036495
O		3.76239331		5.14135321		0.63561578		-0.00019401		 0.00000518		-0.00036495
O		6.17851797		6.61080742		4.87882486		-0.00073012		-0.00024180		-0.00001530
O		6.17851797		2.08419189		2.33432443		-0.00073012		 0.00024180		-0.00001530
O		1.20706804		2.26330826		2.75467643		-0.00073012		-0.00024180		 0.00001530
O		1.20706804		6.43169105		0.21017600		-0.00073012		 0.00024180		 0.00001530
O		6.42708947		8.27503110		2.86103563		 0.00002643		 0.00024253		 0.00045009
O		6.42708947		0.41996920		0.31653619		 0.00002643		-0.00024253		 0.00045009
O		1.45563954		3.92753095		4.77246367		 0.00002643		 0.00024253		-0.00045009
O		1.45563954		4.76746935		2.22796423		 0.00002643		-0.00024253		-0.00045009
Si		2.95005839		0.77124588		0.34808800		 0.00024019		 0.00056531		-0.00042827
Si		2.95005839		7.92375243		2.89258843		 0.00024019		-0.00056531		-0.00042827
Si		7.92150832		5.11874604		2.19641342		 0.00024019		 0.00056531		 0.00042827
Si		7.92150832		3.57625327		4.74091186		 0.00024019		-0.00056531		 0.00042827
Si		6.97892041		7.91592737		4.38671793		-0.00041308		-0.00037771		 0.00045019
Si		6.97892041		0.77907194		1.84221750		-0.00041308		 0.00037771		 0.00045019
Si		2.00747049		3.56842821		3.24678236		-0.00041308		-0.00037771		-0.00045019
Si		2.00747049		5.12657209		0.70228193		-0.00041308		 0.00037771		-0.00045019
Mg		9.91804161		0.83558937		3.64372380		 0.00035777		 0.00026067		 0.00024183
Mg		9.91804161		7.85940993		1.09922437		 0.00035777		-0.00026067		 0.00024183
Mg		4.94659268		5.18308853		3.98977549		 0.00035777		 0.00026067		-0.00024183
Mg		4.94659268		3.51190978		1.44527606		 0.00035777		-0.00026067		-0.00024183
Mg		0.05965740		2.28417642		1.09464367		 0.00014988		 0.00040654		 0.00013769
Mg		0.05965740		6.41082388		3.63914410		 0.00014988		-0.00040654		 0.00013769
Mg		5.03110733		6.63167557		1.44985576		 0.00014988		 0.00040654		-0.00013769
Mg		5.03110733		2.06332373		3.99435619		 0.00014988		-0.00040654		-0.00013769
