# total energy = -24716.3583927 eV

CRYSTAL
PRIMVEC
		9.26497465		0.00000000		0.00000000
		0.00000000		8.69500267		0.00000000
		0.00000000		0.00000000		5.08900042
PRIMECORD
   40 1
O		1.12106193		0.75124769		0.29974231		-0.00036663		-0.00034351		-0.00039092
O		1.12106193		7.94375035		2.84424160		-0.00036663		 0.00034351		-0.00039092
O		5.75354833		5.09874810		2.24475790		-0.00036663		-0.00034351		 0.00039092
O		5.75354833		3.59625179		4.78925811		-0.00036663		 0.00034351		 0.00039092
O		3.49196895		2.13896949		0.53739818		-0.00003936		-0.00002339		-0.00003496
O		3.49196895		6.55602948		3.08189931		-0.00003936		 0.00002339		-0.00003496
O		8.12445534		6.48646990		2.00710203		-0.00003936		-0.00002339		 0.00003496
O		8.12445534		2.20852999		4.55160224		-0.00003936		 0.00002339		 0.00003496
O		3.31500793		8.35502443		1.40456367		 0.00010762		 0.00017866		-0.00017875
O		3.31500793		0.33997361		3.94906388		 0.00010762		-0.00017866		-0.00017875
O		7.94749433		4.00752495		1.13993561		 0.00010762		 0.00017866		 0.00017875
O		7.94749433		4.68747402		3.68443582		 0.00010762		-0.00017866		 0.00017875
O		8.13835373		7.90114537		4.45338425		 0.00044623		-0.00027253		 0.00006723
O		8.13835373		0.79385360		1.90888404		 0.00044623		 0.00027253		 0.00006723
O		3.50586641		3.55364588		3.18011546		 0.00044623		-0.00027253		-0.00006723
O		3.50586641		5.14135309		0.63561617		 0.00044623		 0.00027253		-0.00006723
O		5.75725432		6.61080771		4.87882447		 0.00001973		 0.00065745		 0.00044459
O		5.75725432		2.08419218		2.33432426		 0.00001973		-0.00065745		 0.00044459
O		1.12476792		2.26330823		2.75467616		 0.00001973		 0.00065745		-0.00044459
O		1.12476792		6.43169074		0.21017595		 0.00001973		-0.00065745		-0.00044459
O		5.98887869		8.27503064		2.86103622		-0.00079891		 0.00001509		-0.00029330
O		5.98887869		0.41996926		0.31653601		-0.00079891		-0.00001509		-0.00029330
O		1.35639229		3.92753115		4.77246349		-0.00079891		 0.00001509		 0.00029330
O		1.35639229		4.76746874		2.22796420		-0.00079891		-0.00001509		 0.00029330
Si		2.74891798		0.77124614		0.34808788		 0.00030501		 0.00009806		-0.00036680
Si		2.74891798		7.92375283		2.89258809		 0.00030501		-0.00009806		-0.00036680
Si		7.38140438		5.11874562		2.19641326		 0.00030501		 0.00009806		 0.00036680
Si		7.38140438		3.57625242		4.74091162		 0.00030501		-0.00009806		 0.00036680
Si		6.50308571		7.91592671		4.38671812		-0.00018276		 0.00004766		-0.00043167
Si		6.50308571		0.77907226		1.84221791		-0.00018276		-0.00004766		-0.00043167
Si		1.87059838		3.56842815		3.24678158		-0.00018276		 0.00004766		 0.00043167
Si		1.87059838		5.12657175		0.70228230		-0.00018276		-0.00004766		 0.00043167
Mg		9.24181129		0.83558861		3.64372367		 0.00011751		-0.00076177		 0.00047313
Mg		9.24181129		7.85940943		1.09922439		 0.00011751		 0.00076177		 0.00047313
Mg		4.60932489		5.18308902		3.98977603		 0.00011751		-0.00076177		-0.00047313
Mg		4.60932489		3.51190995		1.44527582		 0.00011751		 0.00076177		-0.00047313
Mg		0.05558985		2.28417573		1.09464378		 0.00039156		-0.00079989		-0.00007338
Mg		0.05558985		6.41082416		3.63914399		 0.00039156		 0.00079989		-0.00007338
Mg		4.68807717		6.63167614		1.44985550		 0.00039156		-0.00079989		 0.00007338
Mg		4.68807717		2.06332375		3.99435571		 0.00039156		 0.00079989		 0.00007338
