# total energy = -24710.010793 eV

CRYSTAL
PRIMVEC
		8.13509983		0.00000000		0.00000000
		0.00000000		8.69499808		0.00000000
		0.00000000		0.00000000		5.08900119
PRIMECORD
   40 1
O		0.98434708		0.75124800		0.29974182		 0.00003007		 0.00069472		 0.00010231
O		0.98434708		7.94375090		2.84424160		 0.00003007		-0.00069472		 0.00010231
O		5.05189700		5.09874785		2.24475796		 0.00003007		 0.00069472		-0.00010231
O		5.05189700		3.59625186		4.78925774		 0.00003007		-0.00069472		-0.00010231
O		3.06611913		2.13896993		0.53739819		 0.00015402		-0.00030027		-0.00003338
O		3.06611913		6.55602977		3.08189878		 0.00015402		 0.00030027		-0.00003338
O		7.13366823		6.48646979		2.00710159		 0.00015402		-0.00030027		 0.00003338
O		7.13366823		2.20852992		4.55160219		 0.00015402		 0.00030027		 0.00003338
O		2.91073872		8.35502494		1.40456403		 0.00038413		 0.00038986		-0.00018204
O		2.91073872		0.33997396		3.94906382		 0.00038413		-0.00038986		-0.00018204
O		6.97828782		4.00752508		1.13993575		 0.00038413		 0.00038986		 0.00018204
O		6.97828782		4.68747381		3.68443553		 0.00038413		-0.00038986		 0.00018204
O		7.14587169		7.90114575		4.45338387		-0.00036167		-0.00000315		 0.00024727
O		7.14587169		0.79385396		1.90888409		-0.00036167		 0.00000315		 0.00024727
O		3.07832178		3.55364590		3.18011628		-0.00036167		-0.00000315		-0.00024727
O		3.07832178		5.14135300		0.63561569		-0.00036167		 0.00000315		-0.00024727
O		5.05515104		6.61080747		4.87882519		-0.00003595		-0.00018515		-0.00019578
O		5.05515104		2.08419224		2.33432378		-0.00003595		 0.00018515		-0.00019578
O		0.98760112		2.26330761		2.75467578		-0.00003595		-0.00018515		 0.00019578
O		0.98760112		6.43169047		0.21017600		-0.00003595		 0.00018515		 0.00019578
O		5.25852772		8.27503087		2.86103570		-0.00009694		-0.00012731		-0.00014218
O		5.25852772		0.41996883		0.31653592		-0.00009694		 0.00012731		-0.00014218
O		1.19097780		3.92753102		4.77246364		-0.00009694		-0.00012731		 0.00014218
O		1.19097780		4.76746869		2.22796386		-0.00009694		 0.00012731		 0.00014218
Si		2.41368412		0.77124570		0.34808791		 0.00019828		 0.00028241		-0.00059590
Si		2.41368412		7.92375319		2.89258769		 0.00019828		-0.00028241		-0.00059590
Si		6.48123404		5.11874555		2.19641269		 0.00019828		 0.00028241		 0.00059590
Si		6.48123404		3.57625253		4.74091165		 0.00019828		-0.00028241		 0.00059590
Si		5.71002576		7.91592723		4.38671754		-0.00035931		-0.00016084		 0.00003635
Si		5.71002576		0.77907167		1.84221776		-0.00035931		 0.00016084		 0.00003635
Si		1.64247666		3.56842819		3.24678180		-0.00035931		-0.00016084		-0.00003635
Si		1.64247666		5.12657152		0.70228202		-0.00035931		 0.00016084		-0.00003635
Mg		8.11476208		0.83558864		3.64372423		-0.00012241		-0.00005029		 0.00039440
Mg		8.11476208		7.85940944		1.09922364		-0.00012241		 0.00005029		 0.00039440
Mg		4.04721217		5.18308850		3.98977592		-0.00012241		-0.00005029		-0.00039440
Mg		4.04721217		3.51190958		1.44527614		-0.00012241		 0.00005029		-0.00039440
Mg		0.04881060		2.28417577		1.09464358		 0.00020978		-0.00032243		 0.00040671
Mg		0.04881060		6.41082394		3.63914417		 0.00020978		 0.00032243		 0.00040671
Mg		4.11635970		6.63167563		1.44985620		 0.00020978		-0.00032243		-0.00040671
Mg		4.11635970		2.06332408		3.99435598		 0.00020978		 0.00032243		-0.00040671
