# total energy = -24711.3240415 eV

CRYSTAL
PRIMVEC
		9.68100150		1.16171784		0.00000000
		1.04868083		8.73900039		0.00000000
		1.61441192		0.19373177		4.94514750
PRIMECORD
   40 1
Si		2.78746564		3.86589120		0.99397493		-0.00035434		 0.00020046		 0.00004515
Si		9.55662666		6.22855880		3.95117159		 0.00035434		-0.00020046		-0.00004515
Si		4.24449840		8.34731393		1.47859882		-0.00043214		 0.00024059		 0.00004285
Si		8.09959389		1.74713607		3.46654770		 0.00043214		-0.00024059		-0.00004285
Si		8.56065776		4.55867363		1.47859882		-0.00065025		-0.00010207		 0.00012563
Si		3.78343453		5.53577637		3.46654770		 0.00065025		 0.00010207		-0.00012563
Si		8.15230485		8.81625129		0.99397493		-0.00055206		 0.00031865		 0.00009368
Si		4.19178745		1.27819871		3.95117159		 0.00055206		-0.00031865		-0.00009368
O		4.47428735		4.15444126		0.49451475		-0.00057257		-0.00047542		-0.00014063
O		7.86980592		5.94000874		4.45063177		 0.00057257		 0.00047542		 0.00014063
O		2.57865089		8.23354368		1.97805900		 0.00067685		-0.00035248		-0.00078648
O		9.76544238		1.86090632		2.96708752		-0.00067685		 0.00035248		 0.00078648
O		8.86388323		3.21695558		0.78627758		-0.00027062		-0.00023914		-0.00007957
O		3.48020906		6.87749442		4.15886894		 0.00027062		 0.00023914		 0.00007957
O		7.51350288		7.36148940		1.68629519		 0.00045730		-0.00030557		 0.00041567
O		4.83059039		2.73295962		3.25885231		-0.00045730		 0.00030557		-0.00041567
O		3.49969535		4.64041071		4.69788866		 0.00022235		 0.00084749		 0.00031114
O		8.84439695		5.45403929		0.24725689		-0.00022235		-0.00084749		-0.00031114
O		5.31447032		9.16476371		2.71983064		-0.00039706		 0.00012831		 0.00019794
O		7.02962198		0.92968629		2.22531589		 0.00039706		-0.00012831		-0.00019794
O		9.63062968		5.37612341		2.71983064		-0.00048444		 0.00043621		 0.00035525
O		2.71346261		4.71832561		2.22531589		 0.00048444		-0.00043621		-0.00035525
O		8.86453456		9.59077080		4.69788866		 0.00043100		 0.00045629		 0.00012166
O		3.47955676		0.50367823		0.24725689		-0.00043100		-0.00045629		-0.00012166
O		2.14866269		2.41112931		1.68629519		-0.00017145		 0.00004493		-0.00015996
O		10.19542960		7.68332069		3.25885231		 0.00017145		-0.00004493		 0.00015996
O		4.54772289		7.00559588		0.78627758		-0.00028838		-0.00003814		 0.00005957
O		7.79636940		3.08885412		4.15886796		 0.00028838		 0.00003814		-0.00005957
O		6.89481122		4.44490436		1.97805900		 0.00070299		 0.00002708		-0.00063072
O		5.44928205		5.64954564		2.96708752		-0.00070299		-0.00002708		 0.00063072
O		9.83912559		9.10480135		0.49451475		-0.00065854		 0.00002356		 0.00007438
O		2.50496573		0.98964865		4.45063177		 0.00065854		-0.00002356		-0.00007438
Mg		0.49903311		0.84368143		1.23628736		-0.00028600		 0.00016714		-0.00012311
Mg		2.16405963		8.08904780		3.70886014		 0.00028600		-0.00016714		 0.00012311
Mg		5.86387330		5.79404152		1.23628736		-0.00005863		 0.00061372		-0.00025411
Mg		6.48021997		4.30040750		3.70886014		 0.00005863		-0.00061372		 0.00025411
Mg		1.04647235		6.06865623		0.98902852		 0.00015330		-0.00004898		-0.00060384
Mg		1.61662137		2.86407398		3.95611702		-0.00015330		 0.00004898		 0.00060384
Mg		5.52407290		2.29938911		1.48354425		 0.00014711		 0.00038250		-0.00064520
Mg		6.82002037		7.79506089		3.46160325		-0.00014711		-0.00038250		 0.00064520
