# total energy = -8278.39857787 eV	

CRYSTAL	
PRIMVEC	
		4.21099898		-0.33687907		0.00000000	
		-0.33687907		4.21099898		0.00000000	
		0.00000000		0.00000000		4.21099898	
PRIMCOORD
   8 1	
Mg		0.00000000		0.00000000		0.00000000		0.00000000		0.00000000		0.00000000	
Mg		-0.16843996		2.10549991		2.10549991		0.00000000		0.00000000		0.00000000	
Mg		2.10549991		-0.16843996		2.10549991		0.00000000		0.00000000		0.00000000	
Mg		1.93705995		1.93705995		0.00000000		0.00000000		0.00000000		0.00000000	
O		1.93705995		1.93705995		2.10549991		0.00000000		0.00000000		0.00000000	
O		2.10549991		-0.16843996		0.00000000		0.00000000		0.00000000		0.00000000	
O		-0.16843996		2.10549991		0.00000000		0.00000000		0.00000000		0.00000000	
O		0.00000000		0.00000000		2.10549991		0.00000000		0.00000000		0.00000000	
