# total energy = -24716.105175 eV

CRYSTAL
PRIMVEC
		9.27320145		0.00000000		1.11278193
		0.00000000		8.72660319		0.00000000
		0.63860393		0.00000000		5.32170249
PRIMECORD
   40 1
Mg		0.15965145		7.89582688		1.33042469		0.00000000		-0.00057311		0.00000000
Mg		0.47895341		0.83077164		3.99127500		0.00000000		 0.00057311		0.00000000
Mg		5.11555320		5.19407230		4.54766690		0.00000000		-0.00017111		0.00000000
Mg		4.79625124		3.53252809		1.88681659		0.00000000		 0.00017111		0.00000000
Mg		0.15965145		2.30993057		1.33042469		0.00000000		-0.00033463		0.00000000
Mg		0.47895341		6.41666889		3.99127500		0.00000000		 0.00033463		0.00000000
Mg		5.11555320		2.05336916		4.54766690		0.00000000		-0.00010839		0.00000000
Mg		4.79625124		6.67323123		1.88681659		0.00000000		 0.00010839		0.00000000
Si		2.74845136		0.79935746		0.67913554		 0.00023842		 0.00006121		-0.00039292
Si		7.16335309		7.92724293		5.75534794		-0.00023842		-0.00006121		 0.00039292
Si		2.29251291		3.56394320		3.24695656		-0.00037952		-0.00024787		-0.00032607
Si		7.61929060		5.16265626		3.18752693		 0.00037952		 0.00024787		 0.00032607
Si		6.84405112		0.79935746		3.09449763		-0.00023842		 0.00006121		 0.00039292
Si		3.06775332		7.92724293		3.33998585		 0.00023842		-0.00006121		-0.00039292
Si		7.93859257		3.56394320		5.84837724		 0.00037952		-0.00024787		 0.00032607
Si		1.97321094		5.16265626		0.58610718		-0.00037952		 0.00024787		-0.00032607
O		1.13832422		0.81680968		0.55200783		 0.00039923		 0.00038746		-0.00030256
O		8.77348022		7.90978978		5.88247566		-0.00039923		-0.00038746		 0.00030256
O		3.91873333		3.54649005		3.50819063		-0.00028707		-0.00019008		 0.00035968
O		5.99307111		5.18010941		2.92629286		 0.00028707		 0.00019008		-0.00035968
O		8.45417826		0.81680968		3.22162628		-0.00039923		 0.00038746		 0.00030256
O		1.45762618		7.90978978		3.21285814		 0.00039923		-0.00038746		-0.00030256
O		6.31237308		3.54649005		5.58714317		 0.00028707		-0.00019008		-0.00035968
O		3.59943137		5.18010941		0.84734125		-0.00028707		 0.00019008		 0.00035968
O		3.53791711		2.18688618		0.79170542		-0.00012275		 0.00012535		-0.00017995
O		6.37388733		6.53971421		5.64277900		 0.00012275		-0.00012535		 0.00017995
O		1.50739012		2.17641355		3.17057532		-0.00003939		-0.00006426		 0.00093470
O		8.40441525		6.55018591		3.26390910		 0.00003939		 0.00006426		-0.00093470
O		6.05458537		2.18688618		2.98192869		 0.00012275		 0.00012535		 0.00017995
O		3.85721908		6.53971421		3.45255480		-0.00012275		-0.00012535		-0.00017995
O		8.72371722		2.17641355		5.92475941		 0.00003939		-0.00006426		-0.00093470
O		1.18808816		6.55018591		0.50972501		-0.00003939		 0.00006426		 0.00093470
O		3.43215870		8.50232549		1.92873329		 0.00022431		 0.00020841		-0.00024757
O		6.47964481		0.22427303		4.50575113		-0.00022431		-0.00020841		 0.00024757
O		1.89311157		4.58757276		4.36658077		 0.00004238		-0.00031883		-0.00008271
O		8.01869194		4.13902577		2.06790271		-0.00004238		 0.00031883		 0.00008271
O		6.16034285		8.50232549		1.84490082		-0.00022431		 0.00020841		 0.00024757
O		3.75146066		0.22427303		4.58958267		 0.00022431		-0.00020841		-0.00024757
O		8.33799391		4.58757276		4.72875302		-0.00004238		-0.00031883		 0.00008271
O		1.57380960		4.13902577		1.70573140		 0.00004238		 0.00031883		-0.00008271
