# total energy = -13384.4976297 eV

CRYSTAL
PRIMVEC
		2.97667520		0.00000000		0.00000000
		-1.48833760		2.64397519		0.00000000
		0.00000000		0.00000000		20.12500036
PRIMECORD
   18 1
O		0.00000000		0.00000000		6.26491333		0.00000000		-0.00033447		 0.00010178
O		0.00000000		0.00000000		13.86008792		0.00000000		 0.00033447		-0.00010178
O		1.48833819		0.88132506		8.61752560		0.00000000		 0.00050520		-0.00009321
O		0.00000000		1.76265012		11.50747566		0.00000000		-0.00050520		 0.00009321
O		1.48833819		0.88132506		1.44497518		0.00000000		-0.00058384		-0.00004525
O		0.00000000		1.76265012		18.68002637		-0.00000000		 0.00058384		 0.00004525
O		0.00000000		1.76265012		3.79758834		0.00000000		 0.00034447		-0.00061201
O		1.48833700		0.88132506		16.32741321		0.00000000		-0.00034447		 0.00061201
H		1.48833819		0.88132506		9.60767552		0.00000000		 0.00015414		-0.00035566
H		0.00000000		1.76265012		10.51732573		0.00000000		-0.00015414		 0.00035566
H		1.48833819		0.88132506		0.45482496		0.00000000		-0.00009693		-0.00006696
H		0.00000000		1.76265012		19.67017630		0.00000000		 0.00009693		 0.00006696
Mg		0.00000000		1.76265012		7.50461342		0.00000000		-0.00027501		-0.00001823
Mg		1.48833700		0.88132506		12.62038784		0.00000000		 0.00027501		 0.00001823
Mg		0.00000000		0.00000000		2.55788825		-0.00000000		 0.00017986		-0.00030511
Mg		0.00000000		0.00000000		17.56711419		-0.00000000		-0.00017986		 0.00030511
Mg		1.48833819		0.88132506		5.03326247		0.00000000		 0.00006989		-0.00024615
Mg		0.00000000		1.76265012		15.09173789		0.00000000		-0.00006989		 0.00024615
