# total energy = -13383.2348397 eV

CRYSTAL
PRIMVEC
		2.74769969		0.00000000		0.00000000
		-1.37384985		2.64397678		0.00000000
		0.00000000		0.00000000		20.12499885
PRIMECORD
   18 1
O		0.00000000		0.00000000		6.26491219		0.00000000		-0.00084789		 0.00011370
O		0.00000000		0.00000000		13.86008555		0.00000000		 0.00084789		-0.00011370
O		1.37384985		0.88132495		8.61752400		0.00000000		 0.00032370		-0.00019546
O		0.00000000		1.76264990		11.50747375		0.00000000		-0.00032370		 0.00019546
O		1.37384985		0.88132495		1.44497488		0.00000000		-0.00067492		 0.00000849
O		0.00000000		1.76264990		18.68002287		0.00000000		 0.00067492		-0.00000849
O		0.00000000		1.76264990		3.79758750		-0.00000000		 0.00078621		-0.00046544
O		1.37384985		0.88132495		16.32741024		0.00000000		-0.00078621		 0.00046544
H		1.37384985		0.88132495		9.60767379		0.00000000		-0.00052149		-0.00030593
H		0.00000000		1.76264990		10.51732395		0.00000000		 0.00052149		 0.00030593
H		1.37384985		0.88132495		0.45482508		0.00000000		-0.00062405		-0.00005409
H		0.00000000		1.76264990		19.67017294		0.00000000		 0.00062405		 0.00005409
Mg		0.00000000		1.76264990		7.50461220		0.00000000		-0.00018879		 0.00060522
Mg		1.37384985		0.88132495		12.62038555		0.00000000		 0.00018879		-0.00060522
Mg		0.00000000		0.00000000		2.55788777		0.00000000		-0.00007617		-0.00087176
Mg		0.00000000		0.00000000		17.56711107		-0.00000000		 0.00007617		 0.00087176
Mg		1.37384985		0.88132495		5.03326130		0.00000000		 0.00001365		-0.00023241
Mg		0.00000000		1.76264990		15.09173534		0.00000000		-0.00001365		 0.00023241
