# total energy = -18534.9256825 eV	

CRYSTAL	
PRIMVEC	
		4.81929338		0.00000000		0.00000000	
		-2.40964435		4.17362817		0.00000000	
		0.00000000		0.00000000		13.91470243	
PRIMCOORD
   30 1	
O		1.46251797		0.15488964		3.33229527		-0.00011387		 0.00022160		 0.00010347	
O		0.94712778		4.01873946		10.58240575		 0.00011404		-0.00022158		-0.00010459	
O		3.95389412		1.18913251		3.33229527		-0.00013489		-0.00020947		 0.00010369	
O		-1.54424837		2.98449660		10.58240575		 0.00013454		 0.00020944		-0.00010490	
O		1.81252563		2.82960649		3.33229527		 0.00024903		-0.00001219		 0.00010320	
O		0.59712059		1.34402309		10.58240575		-0.00024873		 0.00001207		-0.00010476	
O		3.87218340		1.54613121		7.97085478		-0.00012127		 0.00022265		-0.00001309	
O		0.94703828		1.23646814		1.30549807		 0.00011437		-0.00021772		-0.00005133	
O		1.54421135		2.58034408		7.97085478		-0.00013256		-0.00021660		-0.00001382	
O		3.27496019		0.20192443		1.30549807		 0.00013167		 0.00020789		-0.00005077	
O		1.81254297		0.04715428		7.97085478		 0.00025360		-0.00000626		-0.00001330	
O		3.00693973		2.73523607		1.30549807		-0.00024581		 0.00000986		-0.00005129	
O		1.46260794		2.93716097		12.60920295		-0.00011422		 0.00021824		 0.00004963	
O		-1.46253765		2.62749837		5.94384484		 0.00012102		-0.00022319		 0.00001575	
O		-0.86531397		3.97170421		12.60920295		-0.00013159		-0.00020791		 0.00005003	
O		0.86543440		1.59328549		5.94384484		 0.00013289		 0.00021662		 0.00001583	
O		-0.59729397		1.43839304		12.60920295		 0.00024589		-0.00001015		 0.00005019	
O		0.59710279		4.12647482		5.94384484		-0.00025405		 0.00000669		 0.00001611	
Mg		0.00000000		0.00000000		5.01571129		 0.00000012		 0.00000061		 0.00049210	
Mg		0.00000000		0.00000000		8.89898974		 0.00000031		 0.00000032		-0.00049298	
Mg		2.40964622		1.39120970		9.65407867		 0.00000033		-0.00000008		 0.00063488	
Mg		2.40964575		1.39120970		13.53895411		 0.00000011		 0.00000015		-0.00096051	
Mg		0.00000000		2.78241940		0.37574645		-0.00000050		-0.00000046		 0.00096076	
Mg		0.00000000		2.78241940		4.26062142		-0.00000039		-0.00000056		-0.00063450	
Si		0.00000000		0.00000000		2.20379961		 0.00000004		 0.00000021		-0.00072847	
Si		0.00000000		0.00000000		11.71089954		 0.00000013		-0.00000000		 0.00073201	
Si		2.40964575		1.39120970		6.84236802		 0.00000013		-0.00000006		-0.00076096	
Si		2.40964575		1.39120970		2.43410105		 0.00000001		 0.00000006		 0.00076831	
Si		0.00000000		2.78241940		11.48059810		-0.00000021		-0.00000007		-0.00076471	
Si		0.00000000		2.78241987		7.07233535		-0.00000015		-0.00000012		 0.00075400	
