# total energy = -18534.6735437 eV	

CRYSTAL	
PRIMVEC	
		4.84175806		0.00000000		0.00000000	
		-2.42088137		4.19308444		0.00000000	
		0.00000000		0.00000000		14.01349737	
PRIMCOORD
   30 1	
O		1.46815289		0.15793835		3.35124265		-0.00005022		 0.00002889		 0.00011343	
O		0.95272708		4.03514749		10.66225754		 0.00005005		-0.00002889		-0.00011367	
O		3.97090430		1.19248768		3.35124265		 0.00000014		-0.00005806		 0.00011245	
O		-1.55002434		3.00059816		10.66225754		-0.00000004		 0.00005820		-0.00011220	
O		1.82358225		2.84265934		3.35124265		 0.00004992		 0.00002910		 0.00011302	
O		0.59729772		1.35042651		10.66225754		-0.00004983		-0.00002917		-0.00011321	
O		3.88901224		1.55568456		8.02260228		-0.00005128		 0.00002707		 0.00000672	
O		0.95268397		1.23984253		1.31945439		 0.00005806		-0.00004563		 0.00001358	
O		1.54999060		2.59014063		8.02260228		 0.00000197		-0.00005823		 0.00000547	
O		3.29168171		0.20512684		1.31945439		 0.00001025		 0.00007324		 0.00001380	
O		1.82363613		0.04726065		8.02260228		 0.00004917		 0.00003098		 0.00000610	
O		3.01827329		2.74811601		1.31945439		-0.00006852		-0.00002797		 0.00001338	
O		1.46819553		2.95324379		12.69404579		-0.00005804		 0.00004540		-0.00001333	
O		-1.46813227		2.63740129		5.99089509		 0.00005127		-0.00002690		-0.00000670	
O		-0.87080221		3.98795900		12.69404579		-0.00001028		-0.00007322		-0.00001406	
O		0.87088937		1.60294568		5.99089509		-0.00000200		 0.00005817		-0.00000552	
O		-0.59739332		1.44496984		12.69404579		 0.00006823		 0.00002846		-0.00001274	
O		0.59724337		4.14582566		5.99089509		-0.00004910		-0.00003146		-0.00000653	
Mg		0.00000000		0.00000000		5.06178779		 0.00000030		 0.00000014		-0.00040921	
Mg		0.00000000		0.00000000		8.95171052		 0.00000002		-0.00000011		 0.00040958	
Mg		2.42087997		1.39769559		9.73225568		 0.00000009		 0.00000010		 0.00015368	
Mg		2.42087997		1.39769513		13.62481569		-0.00000039		-0.00000007		-0.00020452	
Mg		0.00000000		2.79539072		0.38868496		 0.00000021		-0.00000011		 0.00020378	
Mg		0.00000000		2.79539072		4.28124357		-0.00000007		 0.00000004		-0.00015349	
Si		0.00000000		0.00000000		2.22142553		 0.00000026		-0.00000015		 0.00009542	
Si		0.00000000		0.00000000		11.79207465		-0.00000055		 0.00000037		-0.00009580	
Si		2.42087997		1.39769559		6.89284608		 0.00000063		-0.00000019		 0.00005766	
Si		2.42087997		1.39769513		2.44938022		-0.00000003		 0.00000017		-0.00005575	
Si		0.00000000		2.79539072		11.56412043		 0.00000019		-0.00000053		 0.00005547	
Si		0.00000000		2.79539072		7.12065082		-0.00000043		 0.00000035		-0.00005681	
