# total energy = -44003.4015018 eV	

CRYSTAL	
PRIMVEC	
		9.81800160		0.00000000		-1.17815782	
		0.00000000		18.04700061		0.00000000	
		-1.94653881		0.00000000		5.26359521	
PRIMCOORD
   82 1	
Si		2.17601285		1.51594781		1.22977447		 0.00007847		-0.00023027		-0.00009031	
Si		5.69544599		16.53105279		2.85566390		-0.00007847		 0.00023027		 0.00009031	
Si		5.69544599		1.51594781		2.85566390		-0.00007847		-0.00023027		 0.00009031	
Si		2.17601285		16.53105279		1.22977447		 0.00007847		 0.00023027		-0.00009031	
Si		7.08501266		10.53944812		0.64069358		-0.00031162		-0.00007737		-0.00016721	
Si		0.78644717		7.50755348		3.44474380		 0.00031162		 0.00007737		 0.00016721	
Si		0.78644717		10.53944812		3.44474380		 0.00031162		-0.00007737		 0.00016721	
Si		7.08501266		7.50755348		0.64069358		-0.00031162		 0.00007737		-0.00016721	
Si		1.26904936		3.08784243		3.89285118		 0.00008793		-0.00047506		 0.00016838	
Si		6.60241145		14.95915917		0.19258720		-0.00008793		 0.00047506		-0.00016838	
Si		6.60241145		3.08784243		0.19258720		-0.00008793		-0.00047506		-0.00016838	
Si		1.26904936		14.95915917		3.89285118		 0.00008793		 0.00047506		 0.00016838	
Si		6.17804819		12.11134273		3.30377128		 0.00018533		-0.00017716		 0.00012171	
Si		1.69341065		5.93565788		0.78166710		-0.00018533		 0.00017716		-0.00012171	
Si		1.69341065		12.11134273		0.78166710		-0.00018533		-0.00017716		-0.00012171	
Si		6.17804819		5.93565788		3.30377128		 0.00018533		 0.00017716		 0.00012171	
O		2.22811996		2.13857028		2.69228517		-0.00006439		 0.00013880		-0.00010635	
O		5.64333887		15.90843132		1.39315320		 0.00006439		-0.00013880		 0.00010635	
O		5.64333887		2.13857028		1.39315320		 0.00006439		 0.00013880		 0.00010635	
O		2.22811996		15.90843132		2.69228517		-0.00006439		-0.00013880		-0.00010635	
O		7.13711978		11.16206959		2.10320527		-0.00000366		 0.00005559		-0.00016491	
O		0.73433906		6.88493101		1.98223310		 0.00000366		-0.00005559		 0.00016491	
O		0.73433906		11.16206959		1.98223310		 0.00000366		 0.00005559		 0.00016491	
O		7.13711978		6.88493101		2.10320527		-0.00000366		-0.00005559		-0.00016491	
O		0.67407695		1.55204160		1.01112729		-0.00055446		-0.00031490		-0.00001251	
O		7.19738288		16.49495802		3.07431109		 0.00055446		 0.00031490		 0.00001251	
O		7.19738288		1.55204160		3.07431109		 0.00055446		-0.00031490		 0.00001251	
O		0.67407695		16.49495802		1.01112729		-0.00055446		 0.00031490		-0.00001251	
O		5.58307676		10.57554289		0.42204739		-0.00022842		-0.00035873		 0.00008151	
O		2.28838307		7.47145772		3.66339099		 0.00022842		 0.00035873		-0.00008151	
O		2.28838307		10.57554289		3.66339099		 0.00022842		-0.00035873		-0.00008151	
O		5.58307676		7.47145772		0.42204739		-0.00022842		 0.00035873		 0.00008151	
O		2.04330607		4.47565587		3.74511299		-0.00008146		-0.00015350		-0.00053010	
O		5.82815277		13.57134375		0.34032539		 0.00008146		 0.00015350		 0.00053010	
O		5.82815277		4.47565587		0.34032539		 0.00008146		-0.00015350		 0.00053010	
O		2.04330607		13.57134375		3.74511299		-0.00008146		 0.00015350		-0.00053010	
O		6.95230588		13.49915717		3.15603309		-0.00022074		-0.00043501		-0.00052932	
O		0.91915296		4.54784443		0.92940628		 0.00022074		 0.00043501		 0.00052932	
O		0.91915296		13.49915717		0.92940628		 0.00022074		-0.00043501		 0.00052932	
O		6.95230588		4.54784443		3.15603309		-0.00022074		 0.00043501		-0.00052932	
O		2.74008192		0.00000000		1.14045716		-0.00035628		-0.00000000		-0.00053022	
O		5.13137790		0.00000000		2.94498121		 0.00035628		-0.00000000		 0.00053022	
O		7.64908074		9.02350030		0.55137727		-0.00022235		0.00000000		-0.00052958	
O		0.22237809		9.02350030		3.53406111		 0.00022235		0.00000000		 0.00052958	
O		-0.24586214		3.08964707		3.67123252		-0.00008298		-0.00043872		 0.00005863	
O		8.11732197		14.95735354		0.41420487		 0.00008298		 0.00043872		-0.00005863	
O		8.11732197		3.08964707		0.41420487		 0.00008298		-0.00043872		-0.00005863	
O		-0.24586214		14.95735354		3.67123252		-0.00008298		 0.00043872		 0.00005863	
O		4.66313668		12.11314836		3.08215262		-0.00009077		-0.00047604		 0.00005756	
O		3.20832215		5.93385423		1.00328477		 0.00009077		 0.00047604		-0.00005756	
O		3.20832215		12.11314836		1.00328477		 0.00009077		-0.00047604		-0.00005756	
O		4.66313668		5.93385423		3.08215262		-0.00009077		 0.00047604		 0.00005756	
O		-0.31611256		0.00000000		3.63539880		 0.00004982		0.00000000		 0.00015148	
O		8.18757239		0.00000000		0.45003859		-0.00004982		0.00000000		-0.00015148	
O		4.59288725		9.02350030		3.04631890		-0.00025952		0.00000000		 0.00009555	
O		3.27857159		9.02350030		1.03911947		 0.00025952		0.00000000		-0.00009555	
O		3.20884031		2.42371226		0.11391578		-0.00020491		-0.00031170		 0.00005833	
O		4.66261853		15.62328934		3.97152160		 0.00020491		 0.00031170		-0.00005833	
O		4.66261853		2.42371226		3.97152160		 0.00020491		-0.00031170		-0.00005833	
O		3.20884031		15.62328934		0.11391578		-0.00020491		 0.00031170		 0.00005833	
O		8.11784012		11.44721256		-0.47516412		-0.00021373		-0.00037153		 0.00012261	
O		-0.24638128		6.59978805		4.56060249		 0.00021373		 0.00037153		-0.00012261	
O		-0.24638128		11.44721256		4.56060249		 0.00021373		-0.00037153		-0.00012261	
O		8.11784012		6.59978805		-0.47516412		-0.00021373		 0.00037153		 0.00012261	
Ca		-0.97327039		5.00984704		2.63179859		0.00000000		-0.00052805		0.00000000	
Ca		-0.97327039		13.03715357		2.63179859		0.00000000		 0.00052805		0.00000000	
Ca		3.93573041		14.03334833		2.04271869		0.00000000		-0.00045025		0.00000000	
Ca		3.93573041		4.01365327		2.04271869		0.00000000		 0.00045025		0.00000000	
Mg		0.00000000		0.00000000		0.00000000		0.00000000		0.00000000		0.00000000	
Mg		4.90899981		9.02350030		-0.58907990		0.00000000		0.00000000		0.00000000	
Mg		0.00000000		3.18709959		0.00000000		0.00000000		-0.00003502		0.00000000	
Mg		0.00000000		14.85990102		0.00000000		0.00000000		 0.00003502		0.00000000	
Mg		4.90899981		12.21059989		-0.58907990		0.00000000		 0.00007151		0.00000000	
Mg		4.90899981		5.83639973		-0.58907990		0.00000000		-0.00007151		0.00000000	
Mg		-0.97327039		1.58452709		2.63179859		0.00000000		-0.00010208		0.00000000	
Mg		-0.97327039		16.46247352		2.63179859		0.00000000		 0.00010208		0.00000000	
Mg		3.93573041		10.60802838		2.04271869		0.00000000		-0.00009410		0.00000000	
Mg		3.93573041		7.43897420		2.04271869		0.00000000		 0.00009410		0.00000000	
H		0.45494622		0.00000000		3.81851683		 0.00061375		0.00000000		-0.00013438	
H		7.41651262		0.00000000		0.26692154		-0.00061375		0.00000000		 0.00013438	
H		5.36394603		9.02350030		3.22943693		 0.00093960		0.00000000		-0.00004690	
H		2.50751379		9.02350030		0.85600144		-0.00093960		0.00000000		 0.00004690	
