# total energy = -9075.58216412 eV

CRYSTAL
PRIMVEC
		5.36875511		0.00000000		0.00000000
		0.00000000		5.18979840		0.00000000
		-0.00403194		0.00000000		7.33029959
PRIMECORD
   28 1
Mg		4.07387419		2.66755725		1.83990513		 0.00049551		-0.00093130		 0.00029662
Mg		1.29085220		0.07265697		5.49039392		-0.00049551		-0.00093130		-0.00029662
Si		1.34118106		0.06746700		1.83257516		 0.00031469		 0.00062780		-0.00037157
Si		4.02354426		2.66236727		5.49772388		-0.00031469		 0.00062780		 0.00037157
O		1.94691623		5.07043433		3.53320405		-0.00029574		-0.00018817		-0.00010185
O		3.41780910		2.47553406		3.79709500		 0.00029574		-0.00018817		 0.00010185
O		4.62929392		2.85438992		7.16903238		-0.00022131		 0.00022479		 0.00071828
O		0.73543087		0.25949019		0.16126720		 0.00022131		 0.00022479		-0.00071828
O		4.86666806		4.16740918		5.07989730		-0.00076394		-0.00004812		-0.00029183
O		0.49805726		1.57250891		2.25040229		 0.00076394		-0.00004812		 0.00029183
O		2.41270781		3.43045788		5.87890013		-0.00065093		 0.00012950		 0.00039522
O		2.95201698		0.83555815		1.45139892		 0.00065093		 0.00012950		-0.00039522
O		5.08829027		4.35424186		2.34569608		-0.00029031		-0.00016266		 0.00016058
O		0.27643505		1.75934212		4.98460297		 0.00029031		-0.00016266		-0.00016058
O		2.09845793		3.65880929		1.31945425		 0.00041057		 0.00031031		-0.00003460
O		3.26626686		1.06390902		6.01084534		-0.00041057		 0.00031031		 0.00003460
H		2.45155022		4.16740918		3.58451592		-0.00090933		 0.00058823		-0.00011331
H		2.91317511		1.57250891		3.74578313		 0.00090933		 0.00058823		 0.00011331
H		5.16614205		3.62766998		7.22034426		-0.00004051		-0.00049138		 0.00015231
H		0.19858327		1.03277024		0.10995425		 0.00004051		-0.00049138		-0.00015231
H		1.63971982		2.83363110		5.67365101		 0.00005856		 0.00018894		 0.00084207
H		3.72500497		0.23873082		1.65664804		-0.00005856		 0.00018894		-0.00084207
H		4.15783884		4.93549926		5.35844925		 0.00010193		-0.00050422		-0.00051074
H		1.20688595		2.34060006		1.97184980		-0.00010193		-0.00050422		 0.00051074
H		5.01799287		4.42170886		3.26198313		-0.00008716		 0.00044786		 0.00046593
H		0.34673192		1.82681020		4.06831592		 0.00008716		 0.00044786		-0.00046593
H		2.21171397		3.59653120		0.38850621		 0.00055274		-0.00019161		 0.00035745
H		3.15301189		1.00163092		6.94179338		-0.00055274		-0.00019161		-0.00035745
