# total energy = -10313.845321 eV	

CRYSTAL	
PRIMVEC	
		3.33450006		0.00000000		0.00000000	
		0.00000000		3.51000146		0.00000000	
		0.00000000		0.00000000		10.44999973	
PRIMCOORD
   14 1	
Si		0.00000000		0.00000000		0.00000000		0.00000000		0.00000000		0.00000000	
Si		1.66725003		1.75500007		5.22500020		0.00000000		0.00000000		0.00000000	
Mg		0.00000000		0.00000000		3.90830016		0.00000000		0.00000000		-0.00035002	
Mg		0.00000000		0.00000000		6.54170024		0.00000000		0.00000000		 0.00035002	
Mg		1.66725003		1.75500007		9.13330003		0.00000000		0.00000000		-0.00034090	
Mg		1.66725003		1.75500007		1.31670004		0.00000000		0.00000000		 0.00034090	
O		0.00000000		1.75500007		0.00000000		0.00000000		0.00000000		0.00000000	
O		1.66725003		0.00000000		0.00000000		0.00000000		0.00000000		0.00000000	
O		1.66725003		0.00000000		5.22500020		0.00000000		0.00000000		0.00000000	
O		0.00000000		1.75500007		5.22500020		0.00000000		0.00000000		0.00000000	
O		0.00000000		0.00000000		1.72111488		0.00000000		0.00000000		-0.00043034	
O		0.00000000		0.00000000		8.72888519		0.00000000		0.00000000		 0.00043034	
O		1.66725003		1.75500007		6.94611507		0.00000000		0.00000000		-0.00039314	
O		1.66725003		1.75500007		3.50388499		0.00000000		0.00000000		 0.00039314	
