# total energy = -10313.3885217 eV	

CRYSTAL	
PRIMVEC	
		3.86100015		0.00000000		0.00000000	
		0.00000000		3.51000049		0.00000000	
		0.00000000		0.00000000		10.45000154	
PRIMCOORD
   14 1	
Si		0.00000000		0.00000000		0.00000000		0.00000000		0.00000000		0.00000000	
Si		1.93050007		1.75500024		5.22500038		0.00000000		0.00000000		0.00000000	
Mg		0.00000000		0.00000000		3.90830010		0.00000000		0.00000000		-0.00062058	
Mg		0.00000000		0.00000000		6.54170028		0.00000000		0.00000000		 0.00062058	
Mg		1.93050007		1.75500024		9.13330049		0.00000000		0.00000000		-0.00038814	
Mg		1.93050007		1.75500024		1.31669989		0.00000000		0.00000000		 0.00038814	
O		0.00000000		1.75500024		0.00000000		0.00000000		0.00000000		0.00000000	
O		1.93050007		0.00000000		0.00000000		0.00000000		0.00000000		0.00000000	
O		1.93050007		0.00000000		5.22500038		0.00000000		0.00000000		0.00000000	
O		0.00000000		1.75500024		5.22500038		0.00000000		0.00000000		0.00000000	
O		0.00000000		0.00000000		1.72111495		0.00000000		0.00000000		-0.00086292	
O		0.00000000		0.00000000		8.72888543		0.00000000		0.00000000		 0.00086292	
O		1.93050007		1.75500024		6.94611533		0.00000000		0.00000000		-0.00073324	
O		1.93050007		1.75500024		3.50388505		0.00000000		0.00000000		 0.00073324	
