# total energy = -18390.8064979 eV

CRYSTAL
PRIMVEC
		11.10980014		0.44439156		0.00000000
		0.25557407		6.38939622		0.00000000
		0.00000000		0.00000000		4.82809950
PRIMECORD
   28 1
Mg		0.00000000		0.00000000		0.00000000		0.00000000		0.00000000		0.00000000
Mg		5.55490007		0.22219578		2.41404975		-0.00000000		0.00000000		0.00000000
Mg		0.12778815		3.19470033		0.00000000		0.00000000		0.00000000		0.00000000
Mg		5.68268822		3.41689611		2.41404975		0.00000000		-0.00000000		0.00000000
Ca		3.13953053		1.72037507		4.71922645		-0.00019452		 0.00047855		 0.00005726
Ca		8.22584590		5.11341716		0.10887415		 0.00019452		-0.00047855		-0.00005726
Ca		2.67094472		4.89122138		2.30517671		 0.00019452		-0.00047855		 0.00005726
Ca		8.69443060		1.94257085		2.52292390		-0.00019452		 0.00047855		-0.00005726
Si		0.97000844		1.63359485		1.98425257		-0.00029255		 0.00023932		 0.00002239
Si		10.39536688		5.20019737		2.84384804		 0.00029255		-0.00023932		-0.00002239
Si		4.84046681		4.97800048		4.39830232		 0.00029255		-0.00023932		 0.00002239
Si		6.52490963		1.85579063		0.42979829		-0.00029255		 0.00023932		-0.00002239
O		0.92679234		1.63186590		3.60031437		-0.00021296		 0.00040245		-0.00009300
O		10.43858409		5.20192633		1.22778624		 0.00021296		-0.00040245		 0.00009300
O		4.88368402		4.97972944		1.18626351		 0.00021296		-0.00040245		-0.00009300
O		6.48169130		1.85406168		3.64183598		-0.00021296		 0.00040245		 0.00009300
O		5.05230553		1.79688607		1.18771339		-0.00018495		 0.00020689		-0.00010687
O		6.31307090		5.03690616		3.64038833		 0.00018495		-0.00020689		 0.00010687
O		0.75817083		4.81471038		3.60176314		 0.00018495		-0.00020689		-0.00010687
O		10.60720560		2.01908185		1.22633747		-0.00018495		 0.00020689		 0.00010687
O		1.65070873		0.35755686		1.31951983		-0.00033836		 0.00005288		-0.00024820
O		9.71466659		6.47623536		3.50857967		 0.00033836		-0.00005288		 0.00024820
O		4.15976652		6.25403847		3.73356957		 0.00033836		-0.00005288		-0.00024820
O		7.20560880		0.57975264		1.09452992		-0.00033836		 0.00005288		 0.00024820
O		9.61023880		3.86552723		3.50857967		-0.00025317		 0.00033588		 0.00015603
O		1.75513652		2.96826500		1.31951983		 0.00025317		-0.00033588		-0.00015603
O		7.31003659		3.19046189		1.09452992		 0.00025317		-0.00033588		 0.00015603
O		4.05533873		3.64333145		3.73356957		-0.00025317		 0.00033588		-0.00015603
