# total energy = -18390.8064979 eV

CRYSTAL
PRIMVEC
		11.10980014		-0.44439156		0.00000000
		-0.25557407		6.38939622		0.00000000
		0.00000000		0.00000000		4.82809950
PRIMECORD
   28 1
Mg		0.00000000		0.00000000		0.00000000		0.00000000		0.00000000		0.00000000
Mg		5.55490007		-0.22219578		2.41404975		0.00000000		0.00000000		0.00000000
Mg		-0.12778815		3.19470033		0.00000000		-0.00000000		-0.00000000		0.00000000
Mg		5.42711192		2.97250344		2.41404975		0.00000000		0.00000000		0.00000000
Ca		3.01174239		1.47432526		4.71922645		-0.00019424		-0.00047785		 0.00005697
Ca		7.84248146		4.47068273		0.10887415		 0.00019424		 0.00047785		-0.00005697
Ca		2.28758139		4.69287851		2.30517671		 0.00019424		 0.00047785		 0.00005697
Ca		8.56664246		1.25212948		2.52292390		-0.00019424		-0.00047785		-0.00005697
Si		0.84222141		1.56110548		1.98425257		-0.00029297		-0.00023966		 0.00002238
Si		10.01200244		4.38390251		2.84384804		 0.00029297		 0.00023966		-0.00002238
Si		4.45710237		4.60609940		4.39830232		 0.00029297		 0.00023966		 0.00002238
Si		6.39712148		1.33890859		0.42979829		-0.00029297		-0.00023966		-0.00002238
O		0.79900420		1.56283444		3.60031437		-0.00021288		-0.00040309		-0.00009296
O		10.05521965		4.38217356		1.22778624		 0.00021288		 0.00040309		 0.00009296
O		4.50031958		4.60436934		1.18626351		 0.00021288		 0.00040309		-0.00009296
O		6.35390427		1.34063754		3.64183598		-0.00021288		-0.00040309		 0.00009296
O		4.92451739		1.39781426		1.18771339		-0.00018448		-0.00020773		-0.00010718
O		5.92970646		4.54719373		3.64038833		 0.00018448		 0.00020773		 0.00010718
O		0.37480750		4.76938951		3.60176314		 0.00018448		 0.00020773		-0.00010718
O		10.47941746		1.17561848		1.22633747		-0.00018448		-0.00020773		 0.00010718
O		1.62734949		0.22643422		1.31951983		 0.00025234		 0.00033704		-0.00015571
O		9.22687436		5.71857266		3.50857967		-0.00025234		-0.00033704		 0.00015571
O		3.67197540		5.94076844		3.73356957		-0.00025234		-0.00033704		-0.00015571
O		7.18224845		0.00423844		1.09452992		 0.00025234		 0.00033704		 0.00015571
O		9.33130326		3.10786452		3.50857967		 0.00033781		 0.00005291		 0.00024853
O		1.52292058		2.83714347		1.31951983		-0.00033781		-0.00005291		-0.00024853
O		7.07782065		2.61494658		1.09452992		-0.00033781		-0.00005291		 0.00024853
O		3.77640319		3.33006141		3.73356957		 0.00033781		 0.00005291		-0.00024853
