# total energy = -117592.066001 eV

CRYSTAL
PRIMVEC
		10.58799967		0.00000000		0.00000000
		0.00000000		14.09700041		-1.12775961
		-2.45393833		-0.78156378		9.76951553
PRIMECORD
   156 1
Si		8.18330189		-0.04399737		0.72329379		-0.00015648		 0.00000744		-0.00005040
Si		-0.04923632		13.35943611		7.91846637		 0.00015648		-0.00000744		 0.00005040
Si		1.17773073		6.72962777		3.59535434		-0.00014790		-0.00012939		 0.00005782
Si		6.95633484		6.58580991		5.04640688		 0.00014790		 0.00012939		-0.00005782
Si		3.61492732		2.14691069		6.36668491		-0.00020605		-0.00029033		 0.00038760
Si		4.51914037		11.16852805		2.27507525		 0.00020605		 0.00029033		-0.00038760
Si		3.29217333		9.07595709		7.29597881		 0.00005780		 0.00002264		 0.00022267
Si		4.84189437		4.23948166		1.34578240		-0.00005780		-0.00002264		-0.00022267
Si		1.21183891		1.43564170		4.02760837		-0.00008885		-0.00013038		 0.00008832
Si		6.92222666		11.87979704		4.61415179		 0.00008885		 0.00013038		-0.00008832
Si		8.14919371		8.76042411		0.01020366		 0.00011616		 0.00010924		-0.00004439
Si		-0.01512708		4.55501358		8.63155650		-0.00011616		-0.00010924		 0.00004439
Si		6.86524205		1.29074810		5.45884864		 0.00026825		-0.00007915		 0.00018068
Si		1.26882459		12.02468958		3.18291152		-0.00026825		 0.00007915		-0.00018068
Si		0.04185754		8.06257434		8.35337905		-0.00022149		-0.00030405		-0.00005480
Si		8.09220909		5.25286334		0.28838217		 0.00022149		 0.00030405		 0.00005480
Mg		4.06703279		-0.39078083		4.88475988		0.00000000		0.00000000		0.00000000
Mg		5.29399984		7.04850020		-0.56387980		0.00000000		0.00000000		0.00000000
Mg		4.39572559		2.18152710		3.28495443		-0.00009429		 0.00045838		 0.00005768
Mg		3.73834104		11.13391164		5.35680679		 0.00009429		-0.00045838		-0.00005768
Mg		4.96530809		9.39632772		0.64231465		-0.00038866		-0.00004554		 0.00014955
Mg		3.16875854		3.91911102		7.99944445		 0.00038866		 0.00004554		-0.00014955
Mg		5.29399984		0.00000000		0.00000000		0.00000000		0.00000000		0.00000000
Mg		4.06703279		6.65771831		4.32088008		0.00000000		0.00000000		0.00000000
Mg		6.19165257		-0.19400498		2.86102892		-0.00039572		 0.00021723		 0.00016766
Mg		1.94241301		13.50944372		5.78073230		 0.00039572		-0.00021723		-0.00016766
Mg		3.16938006		6.92192808		1.45423528		-0.00013958		 0.00007181		 0.00009762
Mg		4.96468552		6.39351066		7.18752593		 0.00013958		-0.00007181		-0.00009762
Mg		0.42170944		-0.11417569		1.48848005		 0.00007990		-0.00015338		 0.00019766
Mg		7.71235825		13.42961444		7.15328011		-0.00007990		 0.00015338		-0.00019766
Mg		8.93932424		6.78176308		2.83161122		 0.00013077		-0.00044449		 0.00003137
Mg		-0.80525761		6.53367460		5.81015000		-0.00013077		 0.00044449		-0.00003137
Mg		-0.86838750		-0.49113919		6.20051578		 0.00009168		 0.00015991		-0.00024589
Mg		9.00245519		13.80657687		2.44124544		-0.00009168		-0.00015991		 0.00024589
Mg		7.77548814		6.37716385		7.88909526		-0.00010614		 0.00000010		-0.00008949
Mg		0.35857849		6.93827383		0.75266490		 0.00010614		-0.00000010		 0.00008949
Mg		3.19404057		-0.12933877		2.10171899		-0.00026148		 0.00032729		 0.00006204
Mg		4.94002607		13.44477645		6.54004222		 0.00026148		-0.00032729		-0.00006204
Mg		6.16699311		6.86515522		2.21291311		 0.00019600		 0.00022346		 0.00001260
Mg		1.96707352		6.45028246		6.42884705		-0.00019600		-0.00022346		-0.00001260
Mg		6.57114024		2.29903484		1.01595880		 0.00011114		-0.00006512		-0.00040909
Mg		1.56292640		11.01640284		7.62580136		-0.00011114		 0.00006512		 0.00040909
Mg		2.78989239		9.14997144		2.92161875		-0.00028132		 0.00014089		 0.00022643
Mg		5.34417319		4.16546624		5.72014247		 0.00028132		-0.00014089		-0.00022643
Mg		-1.63791484		1.68131611		9.27846528		 0.00011387		-0.00019927		 0.00035205
Mg		9.77198042		11.63412157		-0.63670513		-0.00011387		 0.00019927		-0.00035205
Mg		8.54501337		9.07324973		4.42166301		-0.00026483		 0.00017473		 0.00021641
Mg		-0.41094780		4.24218901		4.22009820		 0.00026483		-0.00017473		-0.00021641
Mg		0.46893509		1.91027843		7.14654720		-0.00057094		-0.00000261		-0.00009992
Mg		7.66513154		11.40516031		1.49521296		 0.00057094		 0.00000261		 0.00009992
Mg		6.43816449		8.96185657		6.54417578		 0.00001850		-0.00033126		 0.00019577
Mg		1.69590108		4.35358112		2.09758544		-0.00001850		 0.00033126		-0.00019577
Mg		6.00405545		1.78069720		8.54394716		-0.00025943		-0.00045148		 0.00021503
Mg		2.13001119		11.53474049		0.09781406		 0.00025943		 0.00045148		-0.00021503
Mg		0.90304414		9.05563024		5.14964093		-0.00009308		 0.00004602		 0.00018581
Mg		7.23102249		4.25980638		3.49212029		 0.00009308		-0.00004602		-0.00018581
Mg		3.60529224		2.34108296		0.25049937		 0.00028986		 0.00037418		-0.00012542
Mg		4.52877334		10.97435578		8.39126185		-0.00028986		-0.00037418		 0.00012542
Mg		5.75574038		9.06929829		3.69016882		 0.00014306		 0.00019173		 0.00001129
Mg		2.37832519		4.24613939		4.95159134		-0.00014306		-0.00019173		-0.00001129
Mg		9.40458318		2.34682695		1.74219923		 0.00004551		 0.00016086		 0.00033442
Mg		-1.27051655		10.96861073		6.89956199		-0.00004551		-0.00016086		-0.00033442
Mg		-0.04354950		9.31532635		2.17832741		 0.00027724		-0.00012209		-0.00019977
Mg		8.17761719		4.00011134		6.46343381		-0.00027724		 0.00012209		 0.00019977
O		3.63390525		0.53676076		6.45686396		 0.00019049		 0.00015102		 0.00012865
O		4.50016138		12.77867692		2.18489726		-0.00019049		-0.00015102		-0.00012865
O		3.27319539		7.45958564		7.46392143		-0.00016090		-0.00001152		 0.00024720
O		4.86087230		5.85585310		1.17783767		 0.00016090		 0.00001152		-0.00024720
O		5.72267194		0.86449535		4.40867683		 0.00060115		 0.00014317		 0.00055241
O		2.41139469		12.45094339		4.23308333		-0.00060115		-0.00014317		-0.00055241
O		3.63836068		8.24328291		-0.28380180		-0.00008647		-0.00001823		 0.00072431
O		4.49570490		5.07215583		8.92556302		 0.00008647		 0.00001823		-0.00072431
O		6.88739955		2.93575796		5.32336459		-0.00015260		 0.00011934		-0.00003872
O		1.24666708		10.37968078		3.31839557		 0.00015260		-0.00011934		 0.00003872
O		0.01970003		9.70695951		8.22571107		-0.00037537		-0.00031525		-0.00014264
O		8.11436554		3.60847923		0.41605015		 0.00037537		 0.00031525		 0.00014264
O		6.50173167		0.63984235		7.02424204		-0.00032603		-0.00085452		 0.00023279
O		1.63233497		12.67559533		1.61751918		 0.00032603		 0.00085452		-0.00023279
O		0.40536792		7.65535988		6.87263565		-0.00034009		-0.00052790		 0.00013698
O		7.72869871		5.66007781		1.76912451		 0.00034009		 0.00052790		-0.00013698
O		1.23586097		3.08643684		3.87758806		 0.00016803		 0.00009238		-0.00026012
O		6.89820461		10.22900084		4.76417316		-0.00016803		-0.00009238		 0.00026012
O		8.12517166		10.40832661		-0.10367134		 0.00000459		 0.00013290		-0.00015986
O		0.00889392		2.90711107		8.74543150		-0.00000459		-0.00013290		 0.00015986
O		2.73335141		0.93321147		3.65477102		-0.00029971		 0.00016069		-0.00044653
O		5.40071417		12.38222621		4.98699020		 0.00029971		-0.00016069		 0.00044653
O		6.62768122		8.19148218		0.46875086		 0.00004299		 0.00018843		 0.00005415
O		1.50638648		5.12395550		8.17300824		-0.00004299		-0.00018843		-0.00005415
O		0.80050677		0.77329244		5.58372562		-0.00002104		-0.00042730		 0.00053264
O		7.33355880		12.54214524		3.05803454		 0.00002104		 0.00042730		-0.00053264
O		6.10659175		7.55856226		8.31022024		-0.00021141		-0.00038883		 0.00048896
O		2.02747382		5.75687542		0.33154097		 0.00021141		 0.00038883		-0.00048896
O		0.07524997		0.99411258		2.99855857		 0.00028125		 0.00011284		 0.00000961
O		8.05881560		12.32132510		5.64320159		-0.00028125		-0.00011284		-0.00000961
O		9.28578265		8.14749751		1.12361017		 0.00012857		-0.00000871		 0.00010068
O		-1.15171602		5.16794017		7.51815105		-0.00012857		 0.00000871		-0.00010068
O		3.98348606		2.98792610		4.89887898		-0.00040416		 0.00026094		-0.00015260
O		4.15057952		10.32751265		3.74288224		 0.00040416		-0.00026094		 0.00015260
O		2.92361247		9.69144386		8.64726592		 0.00016176		-0.00008395		-0.00027552
O		5.21045311		3.62399382		-0.00550470		-0.00016176		 0.00008395		 0.00027552
O		4.65489441		2.75431671		7.34625805		-0.00027182		-0.00026384		 0.00010572
O		3.47917116		10.56112098		1.29550317		 0.00027182		 0.00026384		-0.00010572
O		2.25220517		9.84892871		6.20597601		-0.00006486		 0.00009274		 0.00006271
O		5.88186146		3.46650898		2.43578521		 0.00006486		-0.00009274		-0.00006271
O		4.87379495		1.06514747		1.58536237		-0.00038650		-0.00033393		-0.00012755
O		3.26027062		12.25029021		7.05639885		 0.00038650		 0.00033393		 0.00012755
O		4.48723767		7.99188039		2.54357316		 0.00023383		-0.00003792		-0.00030658
O		3.64682896		5.32355835		6.09818700		-0.00023383		 0.00003792		 0.00030658
O		4.67919493		0.29085764		9.39057526		 0.00017802		 0.00039822		-0.00031898
O		3.45487170		13.02458004		-0.74881510		-0.00017802		-0.00039822		 0.00031898
O		2.22790466		7.68293314		4.53201538		-0.00009063		-0.00013066		-0.00031780
O		5.90616198		5.63250454		4.10974584		 0.00009063		 0.00013066		 0.00031780
O		7.85626399		0.89582524		2.05610801		-0.00013539		 0.00001362		-0.00005680
O		0.27780158		12.41961350		6.58565321		 0.00013539		-0.00001362		 0.00005680
O		1.50476863		7.89617969		2.09402999		-0.00028027		 0.00011075		-0.00019217
O		6.62929800		5.41925799		6.54773123		 0.00028027		-0.00011075		 0.00019217
O		-1.10338921		0.36408213		7.95002391		 0.00089856		-0.00020239		-0.00009156
O		9.23745584		12.95135661		0.69173625		-0.00089856		 0.00020239		 0.00009156
O		8.01048880		7.52512642		5.97933247		 0.00007659		 0.00012448		-0.00009483
O		0.12357784		5.79031232		2.66242769		-0.00007659		-0.00012448		 0.00009483
O		9.65343718		1.10031551		0.18279970		 0.00005115		 0.00018212		-0.00027348
O		-1.51937054		12.21512217		8.45896046		-0.00005115		-0.00018212		 0.00027348
O		-0.29240349		7.80164580		3.95854073		 0.00029023		-0.00013742		-0.00024460
O		8.42647013		5.51379189		4.68321943		-0.00029023		 0.00013742		 0.00024460
O		1.35807613		0.34397552		8.55152499		-0.00027258		 0.00027401		 0.00006693
O		6.77599050		12.97146216		0.09023623		 0.00027258		-0.00027401		-0.00006693
O		5.54902345		7.60162154		5.37332089		 0.00000012		-0.00022170		-0.00020230
O		2.58504318		5.71381720		3.26844032		-0.00000012		 0.00022170		 0.00020230
O		2.03629998		0.97210225		0.61239931		-0.00035493		-0.00049133		 0.00022975
O		6.09776666		12.34333543		8.02936191		 0.00035493		 0.00049133		-0.00022975
O		7.32473264		7.74095962		3.54405337		 0.00036449		 0.00013088		 0.00014248
O		0.80933293		5.57447912		5.09770679		-0.00036449		-0.00013088		-0.00014248
O		2.21259335		2.81279529		6.72033151		-0.00042937		-0.00064579		-0.00043895
O		5.92147434		10.50264240		1.92142865		 0.00042937		 0.00064579		 0.00043895
O		4.69450729		9.80736657		6.83054835		 0.00019383		-0.00023762		 0.00010855
O		3.43956040		3.50807111		1.81121181		-0.00019383		 0.00023762		-0.00010855
O		8.35511654		0.78800870		5.06710641		-0.00030577		-0.00005437		-0.00004599
O		-0.22104990		12.52742898		3.57465374		 0.00030577		 0.00005437		 0.00004599
O		-1.44801695		7.49027708		8.83112336		 0.00019716		-0.00007279		 0.00018982
O		9.58208359		5.82516060		-0.18936320		-0.00019716		 0.00007279		-0.00018982
O		-0.84821948		2.99405019		5.94286210		-0.00013712		 0.00001843		 0.00042196
O		8.98228717		10.32138749		2.69889912		 0.00013712		-0.00001843		-0.00042196
O		7.75532012		9.86576045		7.58884712		-0.00033812		 0.00016134		-0.00029468
O		0.37874651		3.44967723		1.05291410		 0.00033812		-0.00016134		 0.00029468
O		8.86703150		3.21305450		3.27533099		 0.00022004		 0.00003402		 0.00016262
O		-0.73296592		10.10238318		5.36642917		-0.00022004		-0.00003402		-0.00016262
O		0.49400112		10.43959509		0.48595424		 0.00027531		-0.00043428		-0.00063963
O		7.64006445		2.87584259		8.15580591		-0.00027531		 0.00043428		 0.00063963
H		-1.20765983		2.25178377		5.64405499		 0.00016567		 0.00012689		-0.00021007
H		9.34172647		11.06365391		2.99770623		-0.00016567		-0.00012689		 0.00021007
H		8.11475942		9.06581590		8.01103090		 0.00036828		 0.00007820		 0.00004721
H		0.01930722		4.24962284		0.63073032		-0.00036828		-0.00007820		-0.00004721
H		8.69894806		2.55065759		3.83405762		-0.00036081		 0.00020900		 0.00055702
H		-0.56488143		10.76478009		4.80770254		 0.00036081		-0.00020900		-0.00055702
H		0.66208562		9.85863684		0.02669658		-0.00013216		 0.00076925		-0.00018494
H		7.47198101		3.45680190		8.61506358		 0.00013216		-0.00076925		 0.00018494
