# total energy = -38085.1322886 eV	

CRYSTAL	
PRIMVEC	
		5.69210183		0.91073883		0.00000000	
		1.83360040		11.46000105		0.00000000	
		0.00000000		0.00000000		8.25299743	
PRIMCOORD
   58 1	
O		1.76107782		1.65415099		8.19440362		 0.00002775		-0.00045798		-0.00021246	
O		5.76462152		10.71658427		0.05859612		-0.00002775		 0.00045798		 0.00021246	
O		4.84782190		4.98658490		8.19440362		-0.00002775		 0.00045798		-0.00021246	
O		2.67787802		7.38415037		0.05859612		 0.00002775		-0.00045798		 0.00021246	
O		3.14397863		10.29728275		0.05859612		-0.00026852		 0.00019467		-0.00004829	
O		4.38172072		2.07345310		8.19440362		 0.00026852		-0.00019467		 0.00004829	
O		5.29852092		7.80345362		0.05859612		 0.00026852		-0.00019467		-0.00004829	
O		2.22717900		4.56728165		8.19440362		-0.00026852		 0.00019467		 0.00004829	
O		3.74359654		6.06503777		6.23596667		 0.00032240		 0.00019627		 0.00039843	
O		3.78210281		6.30569750		2.01703307		-0.00032240		-0.00019627		-0.00039843	
O		2.86530261		0.57569813		6.23596667		-0.00032240		-0.00019627		 0.00039843	
O		4.66039674		11.79503714		2.01703307		 0.00032240		 0.00019627		-0.00039843	
O		0.45839981		2.86499997		5.91574995		0.00000000		0.00000000		 0.00079890	
O		1.37520001		8.59499935		2.33724979		0.00000000		0.00000000		-0.00079890	
O		0.45839981		2.86499997		1.80493067		0.00000000		0.00000000		 0.00009657	
O		1.37520001		8.59499935		6.44806850		0.00000000		0.00000000		-0.00009657	
O		4.22124977		9.05036761		5.93143054		0.00000000		0.00000000		-0.00026401	
O		3.30444957		3.32036766		2.32156863		0.00000000		0.00000000		 0.00026401	
O		4.22124977		9.05036761		1.78925008		0.00000000		0.00000000		-0.00024737	
O		3.30444957		3.32036766		6.46374966		0.00000000		0.00000000		 0.00024737	
O		1.81434697		11.33966946		2.10946680		-0.00004378		-0.00047206		-0.00056965	
O		0.01925285		0.12032986		6.14353352		 0.00004378		 0.00047206		 0.00056965	
O		0.93605305		5.85032981		2.10946680		 0.00004378		 0.00047206		-0.00056965	
O		0.89754678		5.60966951		6.14353352		-0.00004378		-0.00047206		 0.00056965	
O		5.52392779		7.83951863		4.06790375		 0.00027075		-0.00018063		-0.00036904	
O		2.00177214		4.53121664		4.18509599		-0.00027075		 0.00018063		 0.00036904	
O		2.91857176		10.26121659		4.06790375		-0.00027075		 0.00018063		-0.00036904	
O		4.60712759		2.10951868		4.18509599		 0.00027075		-0.00018063		 0.00036904	
O		5.07322877		5.02264991		4.18509599		-0.00030638		-0.00010381		 0.00074722	
O		2.45247116		7.34808536		4.06790375		 0.00030638		 0.00010381		-0.00074722	
O		1.53567096		1.61808599		4.18509599		 0.00030638		 0.00010381		 0.00074722	
O		5.99002897		10.75265043		4.06790375		-0.00030638		-0.00010381		-0.00074722	
H		4.22124977		9.05036761		4.88164971		0.00000000		0.00000000		 0.00006246	
H		3.30444957		3.32036766		3.37135061		0.00000000		0.00000000		-0.00006246	
H		0.45839981		2.86499997		2.85471265		0.00000000		0.00000000		 0.00016514	
H		1.37520001		8.59499935		5.39828651		0.00000000		0.00000000		-0.00016514	
Mg		3.76284996		6.18536763		4.12649987		0.00000000		0.00000000		-0.00000000	
Mg		2.84604976		0.45536826		4.12649987		-0.00000000		0.00000000		-0.00000000	
Mg		0.00000000		0.00000000		0.00000000		0.00000000		-0.00000000		0.00000000	
Mg		0.91680020		5.72999995		0.00000000		0.00000000		0.00000000		0.00000000	
Mg		1.65479201		1.67622787		2.06324993		 0.00070775		-0.00015536		-0.00014802	
Mg		5.87090792		10.69450740		6.18974980		-0.00070775		 0.00015536		 0.00014802	
Mg		4.95410772		4.96450803		2.06324993		-0.00070775		 0.00015536		-0.00014802	
Mg		2.57159163		7.40622782		6.18974980		 0.00070775		-0.00015536		 0.00014802	
Mg		3.02485758		10.23913971		6.18974980		-0.00046951		 0.00075174		-0.00009394	
Mg		4.50084177		2.13159613		2.06324993		 0.00046951		-0.00075174		 0.00009394	
Mg		5.41764197		7.86159550		6.18974980		 0.00046951		-0.00075174		-0.00009394	
Mg		2.10805796		4.50913976		2.06324993		-0.00046951		 0.00075174		 0.00009394	
Mg		0.45839981		2.86499997		8.00623483		0.00000000		0.00000000		-0.00018214	
Mg		1.37520001		8.59499935		0.24676491		0.00000000		0.00000000		 0.00018214	
Si		3.98306474		7.56171363		0.96229996		 0.00024598		-0.00022698		 0.00014452	
Si		3.54263460		4.80902164		7.29070036		-0.00024598		 0.00022698		-0.00014452	
Si		4.45943480		10.53902159		0.96229996		-0.00024598		 0.00022698		 0.00014452	
Si		3.06626512		1.83171368		7.29070036		 0.00024598		-0.00022698		-0.00014452	
Si		0.22021478		1.37634599		5.08879983		 0.00018580		 0.00034649		 0.00034747	
Si		1.61338504		10.08365333		3.16419991		-0.00018580		-0.00034649		-0.00034747	
Si		0.69658484		4.35365396		5.08879983		-0.00018580		-0.00034649		 0.00034747	
Si		1.13701498		7.10634536		3.16419991		 0.00018580		 0.00034649		-0.00034747	
