# total energy = -38097.577226 eV	

CRYSTAL	
PRIMVEC	
		5.69210020		0.22768378		0.00000000	
		0.45839818		11.46000005		0.00000000	
		0.00000000		0.00000000		8.25300155	
PRIMCOORD
   58 1	
O		1.59206607		1.46986321		8.19440408		 0.00046021		 0.00019612		 0.00030929	
O		4.55843402		10.21782119		0.05859576		-0.00046021		-0.00019612		-0.00030929	
O		4.32923379		4.48782117		8.19440408		-0.00046021		-0.00019612		 0.00030929	
O		1.82126573		7.19986323		0.05859576		 0.00046021		 0.00019612		-0.00030929	
O		1.93779074		10.11299483		0.05859576		 0.00059738		-0.00055241		 0.00016903	
O		4.21270877		1.57468901		8.19440408		-0.00059738		 0.00055241		-0.00016903	
O		4.44190900		7.30468903		0.05859576		-0.00059738		 0.00055241		 0.00016903	
O		1.70859109		4.38299480		8.19440408		 0.00059738		-0.00055241		-0.00016903	
O		3.07043723		5.72351211		6.23596696		-0.00013013		 0.00064909		-0.00064859	
O		3.08006286		5.96417172		2.01703288		 0.00013013		-0.00064909		 0.00064859	
O		2.85086320		0.23417227		6.23596696		 0.00013013		-0.00064909		-0.00064859	
O		3.29963689		11.45351213		2.01703288		-0.00013013		 0.00064909		 0.00064859	
O		0.11460011		2.86500001		5.91575018		0.00000000		0.00000000		-0.00009137	
O		0.34379977		8.59500004		2.33725022		0.00000000		0.00000000		 0.00009137	
O		0.11460011		2.86500001		1.80493115		0.00000000		0.00000000		-0.00004958	
O		0.34379977		8.59500004		6.44806868		0.00000000		0.00000000		 0.00004958	
O		3.18984987		8.70884193		5.93143079		0.00000000		0.00000000		 0.00022874	
O		2.96065021		2.97884190		2.32156905		0.00000000		0.00000000		-0.00022874	
O		3.18984987		8.70884193		1.78924998		0.00000000		0.00000000		 0.00059280	
O		2.96065021		2.97884190		6.46374986		0.00000000		0.00000000		-0.00059280	
O		0.45358679		11.33966967		2.10946675		 0.00078720		 0.00001661		-0.00015053	
O		0.00481310		0.12032981		6.14353422		-0.00078720		-0.00001661		 0.00015053	
O		0.23401276		5.85032983		2.10946675		-0.00078720		-0.00001661		-0.00015053	
O		0.22438713		5.60967022		6.14353422		 0.00078720		 0.00001661		 0.00015053	
O		4.66731583		7.31370512		4.06790387		-0.00071747		 0.00060921		 0.00012954	
O		1.48318426		4.37397871		4.18509596		 0.00071747		-0.00060921		-0.00012954	
O		1.71238392		10.10397873		4.06790387		 0.00071747		-0.00060921		 0.00012954	
O		4.43811617		1.58370510		4.18509596		-0.00071747		 0.00060921		-0.00012954	
O		4.55464119		4.49683669		4.18509596		-0.00015671		 0.00054670		-0.00005592	
O		1.59585890		7.19084714		4.06790387		 0.00015671		-0.00054670		 0.00005592	
O		1.36665924		1.46084712		4.18509596		 0.00015671		-0.00054670		-0.00005592	
O		4.78384085		10.22683672		4.06790387		-0.00015671		 0.00054670		 0.00005592	
H		3.18984987		8.70884193		4.88165008		0.00000000		0.00000000		-0.00004928	
H		2.96065021		2.97884190		3.37135090		0.00000000		0.00000000		 0.00004928	
H		0.11460011		2.86500001		2.85471300		0.00000000		0.00000000		 0.00013861	
H		0.34379977		8.59500004		5.39828684		0.00000000		0.00000000		-0.00013861	
Mg		3.07524976		5.84384192		4.12650020		-0.00000000		0.00000000		0.00000000	
Mg		2.84605010		0.11384189		4.12650020		0.00000000		-0.00000000		0.00000000	
Mg		0.00000000		0.00000000		0.00000000		-0.00000000		0.00000000		0.00000000	
Mg		0.22920023		5.73000003		0.00000000		0.00000000		-0.00000000		0.00000000	
Mg		1.48096712		1.50546500		2.06324982		 0.00028822		-0.00016765		-0.00018148	
Mg		4.66953297		10.18221883		6.18975002		-0.00028822		 0.00016765		 0.00018148	
Mg		4.44033274		4.45221880		2.06324982		-0.00028822		 0.00016765		-0.00018148	
Mg		1.71016678		7.23546503		6.18975002		 0.00028822		-0.00016765		 0.00018148	
Mg		1.82348287		10.06837694		6.18975002		 0.00001151		-0.00001102		-0.00032409	
Mg		4.32701722		1.61930689		2.06324982		-0.00001151		 0.00001102		 0.00032409	
Mg		4.55621688		7.34930692		6.18975002		-0.00001151		 0.00001102		-0.00032409	
Mg		1.59428321		4.33837691		2.06324982		 0.00001151		-0.00001102		 0.00032409	
Mg		0.11460011		2.86500001		8.00623512		0.00000000		0.00000000		 0.00079068	
Mg		0.34379977		8.59500004		0.24676472		0.00000000		0.00000000		-0.00079068	
Si		3.13030391		7.22018775		0.96230007		-0.00021044		-0.00037338		 0.00032078	
Si		3.02019618		4.46749609		7.29070090		 0.00021044		 0.00037338		-0.00032078	
Si		3.24939584		10.19749611		0.96230007		 0.00021044		 0.00037338		 0.00032078	
Si		2.90110425		1.49018772		7.29070090		-0.00021044		-0.00037338		-0.00032078	
Si		0.05505415		1.37634583		5.08879971		-0.00026093		-0.00038943		-0.00047967	
Si		0.40334574		10.08365422		3.16420013		 0.00026093		 0.00038943		 0.00047967	
Si		0.17414608		4.35365419		5.08879971		 0.00026093		 0.00038943		-0.00047967	
Si		0.28425381		7.10634586		3.16420013		-0.00026093		-0.00038943		 0.00047967	
