# total energy = -38094.9968059 eV	

CRYSTAL	
PRIMVEC	
		5.69209829		0.45536672		0.00000000	
		0.91679777		11.46000062		0.00000000	
		0.00000000		0.00000000		8.25300147	
PRIMCOORD
   58 1	
O		1.64840298		1.53129187		8.19440366		 0.00021402		-0.00025402		-0.00052183	
O		4.96049707		10.38407604		0.05859610		-0.00021402		 0.00025402		 0.00052183	
O		4.50209705		4.65407573		8.19440366		-0.00021402		 0.00025402		-0.00052183	
O		2.10680300		7.26129161		0.05859610		 0.00021402		-0.00025402		 0.00052183	
O		2.33985403		10.17442404		0.05859610		-0.00019465		 0.00005247		-0.00002206	
O		4.26904602		1.74094386		8.19440366		 0.00019465		-0.00005247		 0.00002206	
O		4.72744605		7.47094360		0.05859610		 0.00019465		-0.00005247		-0.00002206	
O		1.88145400		4.44442374		8.19440366		-0.00019465		 0.00005247		 0.00002206	
O		3.29482391		5.83735368		6.23596701		 0.00046595		-0.00025090		 0.00001890	
O		3.31407614		6.07801366		2.01703274		-0.00046595		 0.00025090		-0.00001890	
O		2.85567611		0.34801392		6.23596701		-0.00046595		 0.00025090		 0.00001890	
O		3.75322394		11.56735398		2.01703274		 0.00046595		-0.00025090		-0.00001890	
O		0.22920001		2.86499987		5.91574962		0.00000000		0.00000000		 0.00021414	
O		0.68760004		8.59499961		2.33725014		0.00000000		0.00000000		-0.00021414	
O		0.22920001		2.86499987		1.80493104		0.00000000		0.00000000		-0.00000899	
O		0.68760004		8.59499961		6.44806872		0.00000000		0.00000000		 0.00000899	
O		3.53364975		8.82268354		5.93143063		0.00000000		0.00000000		 0.00021852	
O		3.07524973		3.09268380		2.32156912		0.00000000		0.00000000		-0.00021852	
O		3.53364975		8.82268354		1.78925002		0.00000000		0.00000000		 0.00046037	
O		3.07524973		3.09268380		6.46374973		0.00000000		0.00000000		-0.00046037	
O		0.90717422		11.33966948		2.10946685		-0.00000195		 0.00021534		 0.00003992	
O		0.00962583		0.12032999		6.14353405		 0.00000195		-0.00021534		-0.00003992	
O		0.46802585		5.85032973		2.10946685		 0.00000195		-0.00021534		 0.00003992	
O		0.44877420		5.60966974		6.14353405		-0.00000195		 0.00021534		-0.00003992	
O		4.95285272		7.48897611		4.06790407		 0.00053447		-0.00019069		 0.00041369	
O		1.65604676		4.42639180		4.18509569		-0.00053447		 0.00019069		-0.00041369	
O		2.11444679		10.15639153		4.06790407		-0.00053447		 0.00019069		 0.00041369	
O		4.49445269		1.75897580		4.18509569		 0.00053447		-0.00019069		-0.00041369	
O		4.72750372		4.67210767		4.18509569		 0.00085553		 0.00051417		-0.00032056	
O		1.88139576		7.24325967		4.06790407		-0.00085553		-0.00051417		 0.00032056	
O		1.42299573		1.51325993		4.18509569		-0.00085553		-0.00051417		-0.00032056	
O		5.18590374		10.40210798		4.06790407		 0.00085553		 0.00051417		 0.00032056	
H		3.53364975		8.82268354		4.88165002		0.00000000		0.00000000		 0.00030845	
H		3.07524973		3.09268380		3.37135087		0.00000000		0.00000000		-0.00030845	
H		0.22920001		2.86499987		2.85471279		0.00000000		0.00000000		 0.00023485	
H		0.68760004		8.59499961		5.39828697		0.00000000		0.00000000		-0.00023485	
Mg		3.30444974		5.95768367		4.12650016		0.00000000		0.00000000		0.00000000	
Mg		2.84604971		0.22768393		4.12650016		0.00000000		-0.00000000		0.00000000	
Mg		0.00000000		0.00000000		0.00000000		0.00000000		0.00000000		0.00000000	
Mg		0.45840002		5.72999974		0.00000000		0.00000000		-0.00000000		0.00000000	
Mg		1.53890882		1.56238609		2.06325008		 0.00052352		 0.00015880		 0.00024263	
Mg		5.06999180		10.35298182		6.18974967		-0.00052352		-0.00015880		-0.00024263	
Mg		4.61159178		4.62298208		2.06325008		-0.00052352		-0.00015880		 0.00024263	
Mg		1.99730885		7.29238583		6.18974967		 0.00052352		 0.00015880		-0.00024263	
Mg		2.22394208		10.12529789		6.18974967		-0.00017834		 0.00005314		 0.00028411	
Mg		4.38495911		1.79007002		2.06325008		 0.00017834		-0.00005314		-0.00028411	
Mg		4.84335913		7.52006976		6.18974967		 0.00017834		-0.00005314		 0.00028411	
Mg		1.76554092		4.39529815		2.06325008		-0.00017834		 0.00005314		-0.00028411	
Mg		0.22920001		2.86499987		8.00623490		0.00000000		0.00000000		 0.00031293	
Mg		0.68760004		8.59499961		0.24676485		0.00000000		0.00000000		-0.00031293	
Si		3.41455775		7.33402980		0.96230018		 0.00034668		 0.00013404		 0.00010846	
Si		3.19434173		4.58133811		7.29070072		-0.00034668		-0.00013404		-0.00010846	
Si		3.65274175		10.31133785		0.96230018		-0.00034668		-0.00013404		 0.00010846	
Si		2.95615772		1.60403006		7.29070072		 0.00034668		 0.00013404		-0.00010846	
Si		0.11010801		1.37634613		5.08879977		-0.00012073		-0.00002573		 0.00034616	
Si		0.80669204		10.08365392		3.16419999		 0.00012073		 0.00002573		-0.00034616	
Si		0.34829201		4.35365418		5.08879977		 0.00012073		 0.00002573		 0.00034616	
Si		0.56850803		7.10634587		3.16419999		-0.00012073		-0.00002573		-0.00034616	
