# total energy = -38090.7083506 eV	

CRYSTAL	
PRIMVEC	
		5.69210074		-0.68305071		0.00000000	
		-1.37519960		11.46000237		0.00000000	
		0.00000000		0.00000000		8.25299772	
PRIMCOORD
   58 1	
O		1.36671714		1.22414704		8.19440367		-0.00006093		 0.00063627		-0.00022512	
O		2.95018400		9.55280060		0.05859577		 0.00006093		-0.00063627		 0.00022512	
O		3.63778380		3.82280114		8.19440367		 0.00006093		-0.00063627		-0.00022512	
O		0.67911677		6.95414650		0.05859577		-0.00006093		 0.00063627		 0.00022512	
O		0.32954123		9.86727797		0.05859577		-0.00002766		-0.00023927		-0.00048228	
O		3.98735877		0.90966910		8.19440367		 0.00002766		 0.00023927		 0.00048228	
O		3.29975897		6.63966972		0.05859577		 0.00002766		 0.00023927		-0.00048228	
O		1.01714102		4.13727793		8.19440367		-0.00002766		-0.00023927		 0.00048228	
O		2.17289012		5.26814379		6.23596665		 0.00007065		 0.00007963		-0.00022233	
O		2.14400988		5.50880386		2.01703279		-0.00007065		-0.00007963		 0.00022233	
O		2.83160968		-0.22119618		6.23596665		-0.00007065		-0.00007963		-0.00022233	
O		1.48528975		10.99814382		2.01703279		 0.00007065		 0.00007963		 0.00022233	
O		-0.34380019		2.86500002		5.91575005		0.00000000		0.00000000		-0.00015208	
O		-1.03139998		8.59499948		2.33724997		0.00000000		0.00000000		 0.00015208	
O		-0.34380019		2.86500002		1.80493077		0.00000000		0.00000000		-0.00006739	
O		-1.03139998		8.59499948		6.44806867		0.00000000		0.00000000		 0.00006739	
O		1.81464981		8.25347355		5.93143077		0.00000000		0.00000000		 0.00060257	
O		2.50225019		2.52347409		2.32156867		0.00000000		0.00000000		-0.00060257	
O		1.81464981		8.25347355		1.78925004		0.00000000		0.00000000		-0.00031720	
O		2.50225019		2.52347409		6.46374997		0.00000000		0.00000000		 0.00031720	
O		-1.36076005		11.33966975		2.10946722		-0.00023155		 0.00017644		-0.00040275	
O		-0.01444012		0.12032975		6.14353394		 0.00023155		-0.00017644		 0.00040275	
O		-0.70203992		5.85032979		2.10946722		 0.00023155		-0.00017644		-0.00040275	
O		-0.67316025		5.60966972		6.14353394		-0.00023155		 0.00017644		 0.00040275	
O		3.52516714		6.61262058		4.06790366		 0.00002773		 0.00034129		-0.00022477	
O		0.79173286		4.16432707		4.18509578		-0.00002773		-0.00034129		 0.00022477	
O		0.10413306		9.89432653		4.06790366		-0.00002773		-0.00034129		-0.00022477	
O		4.21276694		0.88262111		4.18509578		 0.00002773		 0.00034129		 0.00022477	
O		3.86319082		3.79575200		4.18509578		-0.00007710		 0.00012985		 0.00006343	
O		0.45370918		6.98119565		4.06790366		 0.00007710		-0.00012985		-0.00006343	
O		1.14130898		1.25119618		4.18509578		 0.00007710		-0.00012985		 0.00006343	
O		3.17559102		9.52575146		4.06790366		-0.00007710		 0.00012985		-0.00006343	
H		1.81464981		8.25347355		4.88164985		0.00000000		0.00000000		 0.00073416	
H		2.50225019		2.52347409		3.37135074		0.00000000		0.00000000		-0.00073416	
H		-0.34380019		2.86500002		2.85471284		0.00000000		0.00000000		 0.00011890	
H		-1.03139998		8.59499948		5.39828660		0.00000000		0.00000000		-0.00011890	
Mg		2.15845000		5.38847411		4.12650001		0.00000000		0.00000000		0.00000000	
Mg		2.84604980		-0.34152593		4.12650001		0.00000000		0.00000000		0.00000000	
Mg		0.00000000		0.00000000		0.00000000		0.00000000		0.00000000		0.00000000	
Mg		-0.68759980		5.73000004		0.00000000		0.00000000		0.00000000		0.00000000	
Mg		1.24919997		1.27778095		2.06325000		 0.00017373		 0.00025222		-0.00024658	
Mg		3.06770003		9.49916669		6.18975001		-0.00017373		-0.00025222		 0.00024658	
Mg		3.75529982		3.76916665		2.06325000		-0.00017373		-0.00025222		-0.00024658	
Mg		0.56160017		7.00778099		6.18975001		 0.00017373		 0.00025222		 0.00024658	
Mg		0.22165023		9.84069262		6.18975001		-0.00053197		-0.00005564		 0.00042997	
Mg		4.09524977		0.93625502		2.06325000		 0.00053197		 0.00005564		-0.00042997	
Mg		3.40764997		6.66625506		6.18975001		 0.00053197		 0.00005564		 0.00042997	
Mg		0.90925003		4.11069258		2.06325000		-0.00053197		-0.00005564		-0.00042997	
Mg		-0.34380019		2.86500002		8.00623494		0.00000000		0.00000000		 0.00004314	
Mg		-1.03139998		8.59499948		0.24676508		0.00000000		0.00000000		-0.00004314	
Si		1.99328811		6.76481972		0.96229975		 0.00021214		-0.00005583		 0.00004217	
Si		2.32361189		4.01212792		7.29070083		-0.00021214		 0.00005583		-0.00004217	
Si		1.63601209		9.74212796		0.96229975		-0.00021214		 0.00005583		 0.00004217	
Si		2.68088791		1.03481968		7.29070083		 0.00021214		-0.00005583		-0.00004217	
Si		-0.16516189		1.37634618		5.08879976		 0.00016469		-0.00008974		 0.00017582	
Si		-1.21003771		10.08365389		3.16419968		-0.00016469		 0.00008974		-0.00017582	
Si		-0.52243791		4.35365385		5.08879976		-0.00016469		 0.00008974		 0.00017582	
Si		-0.85276226		7.10634565		3.16419968		 0.00016469		-0.00008974		-0.00017582	
