# total energy = -38085.1322885 eV	

CRYSTAL	
PRIMVEC	
		5.69210183		-0.91073883		0.00000000	
		-1.83360040		11.46000105		0.00000000	
		0.00000000		0.00000000		8.25299743	
PRIMCOORD
   58 1	
O		1.31037881		1.16271715		8.19440362		-0.00026853		-0.00019461		 0.00004825	
O		2.54812090		9.38654680		0.05859612		 0.00026853		 0.00019461		-0.00004825	
O		3.46492110		3.65654570		8.19440362		 0.00026853		 0.00019461		 0.00004825	
O		0.39357918		6.89271767		0.05859612		-0.00026853		-0.00019461		-0.00004825	
O		-0.07252200		9.80584833		0.05859612		 0.00002777		 0.00045798		 0.00021243	
O		3.93102170		0.74341505		8.19440362		-0.00002777		-0.00045798		-0.00021243	
O		3.01422208		6.47341442		0.05859612		-0.00002777		-0.00045798		 0.00021243	
O		0.84427820		4.07584895		8.19440362		 0.00002777		 0.00045798		-0.00021243	
O		1.94850299		5.15430182		6.23596667		-0.00032247		 0.00019628		 0.00039847	
O		1.90999672		5.39496155		2.01703307		 0.00032247		-0.00019628		-0.00039847	
O		2.82679692		-0.33503782		6.23596667		 0.00032247		-0.00019628		 0.00039847	
O		1.03170279		10.88430119		2.01703307		-0.00032247		 0.00019628		-0.00039847	
O		-0.45839981		2.86499997		5.91574995		0.00000000		0.00000000		 0.00079895	
O		-1.37520001		8.59499935		2.33724979		0.00000000		0.00000000		-0.00079895	
O		-0.45839981		2.86499997		1.80493067		0.00000000		0.00000000		 0.00009650	
O		-1.37520001		8.59499935		6.44806850		0.00000000		0.00000000		-0.00009650	
O		1.47084975		8.13963166		5.93143054		0.00000000		0.00000000		-0.00026410	
O		2.38764995		2.40963171		2.32156863		0.00000000		0.00000000		 0.00026410	
O		1.47084975		8.13963166		1.78925008		0.00000000		0.00000000		-0.00024734	
O		2.38764995		2.40963171		6.46374966		0.00000000		0.00000000		 0.00024734	
O		-1.81434697		11.33966946		2.10946680		 0.00004375		-0.00047213		-0.00056979	
O		-0.01925285		0.12032986		6.14353352		-0.00004375		 0.00047213		 0.00056979	
O		-0.93605305		5.85032981		2.10946680		-0.00004375		 0.00047213		-0.00056979	
O		-0.89754678		5.60966951		6.14353352		 0.00004375		-0.00047213		 0.00056979	
O		3.23962895		6.43734941		4.06790375		-0.00030642		 0.00010379		-0.00074724	
O		0.61887076		4.11191396		4.18509599		 0.00030642		-0.00010379		 0.00074724	
O		-0.29792886		9.84191448		4.06790375		 0.00030642		-0.00010379		-0.00074724	
O		4.15642857		0.70735004		4.18509599		-0.00030642		 0.00010379		 0.00074724	
O		3.69032796		3.62048069		4.18509599		 0.00027083		 0.00018059		 0.00036904	
O		0.16817174		6.92878268		4.06790375		-0.00027083		-0.00018059		-0.00036904	
O		1.08497194		1.19878273		4.18509599		-0.00027083		-0.00018059		 0.00036904	
O		2.77352776		9.35048064		4.06790375		 0.00027083		 0.00018059		-0.00036904	
H		1.47084975		8.13963166		4.88164971		0.00000000		0.00000000		 0.00006261	
H		2.38764995		2.40963171		3.37135061		0.00000000		0.00000000		-0.00006261	
H		-0.45839981		2.86499997		2.85471265		0.00000000		0.00000000		 0.00016521	
H		-1.37520001		8.59499935		5.39828651		0.00000000		0.00000000		-0.00016521	
Mg		1.92925014		5.27463169		4.12649987		0.00000000		0.00000000		0.00000000	
Mg		2.84604976		-0.45536826		4.12649987		0.00000000		0.00000000		0.00000000	
Mg		0.00000000		0.00000000		0.00000000		-0.00000000		-0.00000000		-0.00000000	
Mg		-0.91680020		5.72999995		0.00000000		0.00000000		0.00000000		0.00000000	
Mg		1.19125776		1.22086018		2.06324993		-0.00046947		-0.00075171		 0.00009398	
Mg		2.66724195		9.32840377		6.18974980		 0.00046947		 0.00075171		-0.00009398	
Mg		3.58404157		3.59840382		2.06324993		 0.00046947		 0.00075171		 0.00009398	
Mg		0.27445813		6.95085956		6.18974980		-0.00046947		-0.00075171		-0.00009398	
Mg		-0.17880782		9.78377145		6.18974980		 0.00070771		 0.00015534		 0.00014807	
Mg		4.03730752		0.76549192		2.06324993		-0.00070771		-0.00015534		-0.00014807	
Mg		3.12050790		6.49549187		6.18974980		-0.00070771		-0.00015534		 0.00014807	
Mg		0.73799181		4.05377208		2.06324993		 0.00070771		 0.00015534		-0.00014807	
Mg		-0.45839981		2.86499997		8.00623483		0.00000000		0.00000000		-0.00018211	
Mg		-1.37520001		8.59499935		0.24676491		0.00000000		0.00000000		 0.00018211	
Si		1.70903478		6.65097768		0.96229996		-0.00024594		-0.00022712		 0.00014464	
Si		2.14946492		3.89828569		7.29070036		 0.00024594		 0.00022712		-0.00014464	
Si		1.23266472		9.62828564		0.96229996		 0.00024594		 0.00022712		 0.00014464	
Si		2.62583498		0.92097773		7.29070036		-0.00024594		-0.00022712		-0.00014464	
Si		-0.22021478		1.37634599		5.08879983		-0.00018573		 0.00034643		 0.00034738	
Si		-1.61338504		10.08365333		3.16419991		 0.00018573		-0.00034643		-0.00034738	
Si		-0.69658484		4.35365396		5.08879983		 0.00018573		-0.00034643		 0.00034738	
Si		-1.13701498		7.10634536		3.16419991		-0.00018573		 0.00034643		-0.00034738	
