# total energy = -10068.3063751 eV

CRYSTAL
PRIMVEC
		4.82861369		-0.77258034		0.00000000
		-0.77258034		4.82861369		0.00000000
		0.00000000		0.00000000		4.82861369
PRIMECORD
   12 1
Mg		0.00000000		0.00000000		0.00000000		0.00000000		0.00000000		0.00000000
Mg		2.41430587		-0.38628919		2.41430587		0.00000000		0.00000000		0.00000000
Mg		-0.38628919		2.41430587		2.41430587		0.00000000		0.00000000		0.00000000
Mg		2.02801716		2.02801716		0.00000000		0.00000000		0.00000000		0.00000000
O		-0.02358020		2.77701486		4.39681595		 0.00010102		-0.00017581		 0.00001906
O		4.07961502		1.27901996		0.43179579		-0.00010102		 0.00017581		-0.00001906
O		1.66530915		1.66530915		1.98251008		-0.00010102		 0.00017581		 0.00001906
O		2.39072616		2.39072616		2.84610215		 0.00010102		-0.00017581		-0.00001906
O		4.32772866		-0.27169482		2.84610215		 0.00010229		-0.00002432		-0.00014717
O		-0.27169482		4.32772866		1.98251008		-0.00010229		 0.00002432		 0.00014717
O		2.14261105		3.94143996		0.43179579		-0.00010229		 0.00002432		-0.00014717
O		1.91342279		0.11459388		4.39681595		 0.00010229		-0.00002432		 0.00014717
