# total energy = -10069.0188129 eV

CRYSTAL
PRIMVEC
		4.82861203		-0.19314429		0.00000000
		-0.19314429		4.82861203		0.00000000
		0.00000000		0.00000000		4.82861203
PRIMECORD
   12 1
Mg		0.00000000		0.00000000		0.00000000		-0.00000000		-0.00000000		0.00000000
Mg		2.41430602		-0.09657214		2.41430602		0.00000000		0.00000000		0.00000000
Mg		-0.09657214		2.41430602		2.41430602		-0.00000000		-0.00000000		-0.00000000
Mg		2.31773387		2.31773387		0.00000000		0.00000000		0.00000000		-0.00000000
O		0.31795209		2.82882977		4.39681606		 0.00008567		 0.00021552		 0.00034790
O		4.31751565		1.80663798		0.43179598		-0.00008567		-0.00021552		-0.00034790
O		1.90321012		1.90321012		1.98251004		-0.00008567		-0.00021552		 0.00034790
O		2.73225811		2.73225811		2.84610199		 0.00008567		 0.00021552		-0.00034790
O		4.37954480		0.25592295		2.84610199		-0.00052800		 0.00017136		-0.00015294
O		0.25592295		4.37954480		1.98251004		 0.00052800		-0.00017136		 0.00015294
O		2.67022896		4.28297169		0.43179598		 0.00052800		-0.00017136		-0.00015294
O		1.96523781		0.35249606		4.39681606		-0.00052800		 0.00017136		 0.00015294
