# total energy = -10068.306374 eV

CRYSTAL
PRIMVEC
		4.82861369		0.77258034		0.00000000
		0.77258034		4.82861369		0.00000000
		0.00000000		0.00000000		4.82861369
PRIMECORD
   12 1
Mg		0.00000000		0.00000000		0.00000000		0.00000000		0.00000000		0.00000000
Mg		2.41430587		0.38628919		2.41430587		0.00000000		0.00000000		0.00000000
Mg		0.38628919		2.41430587		2.41430587		0.00000000		0.00000000		0.00000000
Mg		2.80059506		2.80059506		0.00000000		0.00000000		0.00000000		0.00000000
O		0.88717178		2.91518895		4.39681595		-0.00009454		-0.00005498		 0.00020563
O		4.71401785		2.68600069		0.43179579		 0.00009454		 0.00005498		-0.00020563
O		2.29971198		2.29971198		1.98251008		 0.00009454		 0.00005498		 0.00020563
O		3.30147814		3.30147814		2.84610215		-0.00009454		-0.00005498		-0.00020563
O		4.46590372		1.13528689		2.84610215		-0.00008517		-0.00017677		-0.00001531
O		1.13528689		4.46590372		1.98251008		 0.00008517		 0.00017677		 0.00001531
O		3.54959276		4.85219292		0.43179579		 0.00008517		 0.00017677		-0.00001531
O		2.05159786		0.74899818		4.39681595		-0.00008517		-0.00017677		 0.00001531
