# total energy = -10069.0188129 eV

CRYSTAL
PRIMVEC
		4.82861203		0.19314429		0.00000000
		0.19314429		4.82861203		0.00000000
		0.00000000		0.00000000		4.82861203
PRIMECORD
   12 1
Mg		0.00000000		0.00000000		0.00000000		0.00000000		0.00000000		0.00000000
Mg		2.41430602		0.09657214		2.41430602		0.00000000		0.00000000		0.00000000
Mg		0.09657214		2.41430602		2.41430602		0.00000000		0.00000000		0.00000000
Mg		2.51087816		2.51087816		0.00000000		0.00000000		0.00000000		-0.00000000
O		0.54563986		2.86337373		4.39681606		 0.00052795		 0.00017133		 0.00015294
O		4.47611694		2.15838307		0.43179598		-0.00052795		-0.00017133		-0.00015294
O		2.06181093		2.06181093		1.98251004		-0.00052795		-0.00017133		 0.00015294
O		2.95994588		2.95994588		2.84610199		 0.00052795		 0.00017133		-0.00015294
O		4.41408780		0.60766900		2.84610199		-0.00008565		 0.00021544		-0.00034774
O		0.60766900		4.41408780		1.98251004		 0.00008565		-0.00021544		 0.00034774
O		3.02197502		4.51065994		0.43179598		 0.00008565		-0.00021544		-0.00034774
O		1.99978178		0.51109589		4.39681606		-0.00008565		 0.00021544		 0.00034774
