# total energy = -10067.2841648 eV

CRYSTAL
PRIMVEC
		4.82861287		-0.57943238		0.00000000
		-0.57943238		4.82861287		0.00000000
		0.00000000		0.00000000		4.82861287
PRIMECORD
   12 1
Mg		0.00000000		0.00000000		0.00000000		0.00000000		0.00000000		0.00000000
Mg		2.41430595		-0.28971716		2.41430595		-0.00000000		-0.00000000		0.00000000
Mg		-0.28971716		2.41430595		2.41430595		0.00000000		0.00000000		0.00000000
Mg		2.12458927		2.12458927		0.00000000		-0.00000000		-0.00000000		0.00000000
O		0.09026394		2.79428705		4.39681624		-0.00043076		-0.00011412		 0.00004053
O		4.15891510		1.45489199		0.43179615		 0.00043076		 0.00011412		-0.00004053
O		1.74460915		1.74460915		1.98251029		 0.00043076		 0.00011412		 0.00004053
O		2.50456989		2.50456989		2.84610210		-0.00043076		-0.00011412		-0.00004053
O		4.34500118		-0.09582215		2.84610210		 0.00013571		 0.00000268		-0.00003878
O		-0.09582215		4.34500118		1.98251029		-0.00013571		-0.00000268		 0.00003878
O		2.31848429		4.05528402		0.43179615		-0.00013571		-0.00000268		-0.00003878
O		1.93069523		0.19389501		4.39681624		 0.00013571		 0.00000268		 0.00003878
