# total energy = -10316.0392737 eV	

CRYSTAL	
PRIMVEC	
		4.98000074		0.00000000		-0.59759889	
		0.00000000		8.85000087		0.00000000	
		-0.32999978		0.00000000		2.74999814	
PRIMCOORD
   14 1	
Si		0.00000000		0.00000000		0.00000000		0.00000000		0.00000000		0.00000000	
Si		2.48999987		4.42499993		-0.29879994		0.00000000		0.00000000		0.00000000	
Mg		0.24286204		2.94616476		1.32605711		-0.00061875		-0.00022339		 0.00012212	
Mg		4.40713792		5.90383510		0.82634316		 0.00061875		 0.00022339		-0.00012212	
Mg		1.91713805		7.37116469		1.12514310		 0.00061875		-0.00022339		-0.00012212	
Mg		2.73286191		1.47883517		1.02725716		-0.00061875		 0.00022339		 0.00012212	
O		0.91267186		0.39648024		1.24567906		-0.00012700		-0.00011636		-0.00018249	
O		3.73732811		8.45352113		0.90672120		 0.00012700		 0.00011636		 0.00018249	
O		1.24732773		4.82148017		1.20552114		 0.00012700		-0.00011636		 0.00018249	
O		3.40267173		4.02852019		0.94687912		-0.00012700		 0.00011636		-0.00018249	
O		1.95465018		2.73199519		-0.23455800		-0.00015951		 0.00036460		 0.00028967	
O		3.02535006		6.11800567		-0.36304189		 0.00015951		-0.00036460		-0.00028967	
O		0.53535019		7.15699512		-0.06424194		 0.00015951		 0.00036460		-0.00028967	
O		4.44465005		1.69300474		-0.53335795		-0.00015951		-0.00036460		 0.00028967	
