# total energy = -10316.0392737 eV	

CRYSTAL	
PRIMVEC	
		4.98000074		0.00000000		0.59759889	
		0.00000000		8.85000087		0.00000000	
		0.32999978		0.00000000		2.74999814	
PRIMCOORD
   14 1	
Si		0.00000000		0.00000000		0.00000000		-0.00000000		0.00000000		0.00000000	
Si		2.48999987		4.42499993		0.29879994		0.00000000		0.00000000		-0.00000000	
Mg		0.57286182		2.94616476		1.42394305		-0.00061880		-0.00022340		-0.00012213	
Mg		4.73713770		5.90383510		1.92365699		 0.00061880		 0.00022340		 0.00012213	
Mg		2.24713783		7.37116469		1.62485705		 0.00061880		-0.00022340		 0.00012213	
Mg		3.06286219		1.47883517		1.72274299		-0.00061880		 0.00022340		-0.00012213	
O		1.24267214		0.39648024		1.50432109		-0.00012701		-0.00011635		 0.00018252	
O		4.06732788		8.45352113		1.84327895		 0.00012701		 0.00011635		-0.00018252	
O		1.57732801		4.82148017		1.54447901		 0.00012701		-0.00011635		-0.00018252	
O		3.73267201		4.02852019		1.80312103		-0.00012701		 0.00011635		 0.00018252	
O		1.95465018		2.73199519		0.23455800		-0.00015952		 0.00036463		-0.00028967	
O		3.02535006		6.11800567		0.36304189		 0.00015952		-0.00036463		 0.00028967	
O		0.53535019		7.15699512		0.06424194		 0.00015952		 0.00036463		 0.00028967	
O		4.44465005		1.69300474		0.53335795		-0.00015952		-0.00036463		-0.00028967	
