# total energy = -10316.6003208 eV	

CRYSTAL	
PRIMVEC	
		4.97999864		0.00000000		-0.39839889	
		0.00000000		8.85000086		0.00000000	
		-0.21999992		0.00000000		2.74999900	
PRIMCOORD
   14 1	
Si		0.00000000		0.00000000		0.00000000		-0.00000000		0.00000000		-0.00000000	
Si		2.48999982		4.42499993		-0.19919995		0.00000000		0.00000000		0.00000000	
Mg		0.29786219		2.94616493		1.34237121		-0.00012656		 0.00053363		-0.00036734	
Mg		4.46213803		5.90383494		1.00922890		 0.00012656		-0.00053363		 0.00036734	
Mg		1.97213821		7.37116486		1.20842884		 0.00012656		 0.00053363		 0.00036734	
Mg		2.78786201		1.47883500		1.14317076		-0.00012656		-0.00053363		-0.00036734	
O		0.96767192		0.39647996		1.28878607		 0.00013840		-0.00000752		 0.00019674	
O		3.79232780		8.45352090		1.06281404		-0.00013840		 0.00000752		-0.00019674	
O		1.30232798		4.82147989		1.26201398		-0.00013840		-0.00000752		-0.00019674	
O		3.45767223		4.02851997		1.08958612		 0.00013840		 0.00000752		 0.00019674	
O		1.95465003		2.73199523		-0.15637200		 0.00061405		 0.00092031		 0.00031525	
O		3.02535011		6.11800613		-0.24202789		-0.00061405		-0.00092031		-0.00031525	
O		0.53534979		7.15699517		-0.04282794		-0.00061405		 0.00092031		-0.00031525	
O		4.44464985		1.69300520		-0.35557195		 0.00061405		-0.00092031		 0.00031525	
