# total energy = -10317.0595002 eV	

CRYSTAL	
PRIMVEC	
		4.98000023		0.00000000		-0.19919981	
		0.00000000		8.84999780		0.00000000	
		-0.11000148		0.00000000		2.75000202	
PRIMCOORD
   14 1	
Si		0.00000000		0.00000000		0.00000000		0.00000000		0.00000000		0.00000000	
Si		2.49000011		4.42499989		-0.09959990		0.00000000		0.00000000		0.00000000	
Mg		0.35286197		2.94616509		1.35868594		 0.00043719		-0.00070195		 0.00050202	
Mg		4.51713778		5.90383520		1.19211377		-0.00043719		 0.00070195		-0.00050202	
Mg		2.02713816		7.37116498		1.29171418		-0.00043719		-0.00070195		-0.00050202	
Mg		2.84286208		1.47883481		1.25908604		 0.00043719		 0.00070195		 0.00050202	
O		1.02267183		0.39647979		1.33189305		 0.00005096		 0.00061395		-0.00030072	
O		3.84732792		8.45352100		1.21890717		-0.00005096		-0.00061395		 0.00030072	
O		1.35732781		4.82148018		1.31850707		-0.00005096		 0.00061395		 0.00030072	
O		3.51267194		4.02852011		1.23229315		 0.00005096		-0.00061395		-0.00030072	
O		1.95465013		2.73199489		-0.07818622		-0.00034758		-0.00070924		-0.00034207	
O		3.02535010		6.11800590		-0.12101408		 0.00034758		 0.00070924		 0.00034207	
O		0.53534999		7.15699528		-0.02141418		 0.00034758		-0.00070924		 0.00034207	
O		4.44465024		1.69300501		-0.17778613		-0.00034758		 0.00070924		-0.00034207	
