# total energy = -4139.13052945 eV

CRYSTAL
PRIMVEC
		3.30778719		0.00000000		0.00000000
		-1.65389360		2.86462971		0.00000000
		0.00000000		0.00000000		4.48459203
PRIMECORD
   4 1
Mg		0.00000000		1.90975226		0.00968586		0.00000000		-0.00000000		-0.00013881
Mg		1.65389293		0.95487613		2.25198221		0.00000000		0.00000000		-0.00013881
O		0.00000000		1.90975226		1.80478095		0.00000000		0.00000000		 0.00013881
O		1.65389293		0.95487613		4.04707829		0.00000000		0.00000000		 0.00013881
