# total energy = -9075.50605912 eV

CRYSTAL
PRIMVEC
		5.11310008		0.00000000		0.00000000
		0.00000000		5.44929152		0.00000000
		-0.00383994		0.00000000		7.33029878
PRIMECORD
   28 1
Mg		3.87988016		2.80093526		1.83990509		-0.00010389		-0.00002887		-0.00057847
Mg		1.22938202		0.07629001		5.49039420		 0.00010389		-0.00002887		 0.00057847
Si		1.27731580		0.07084098		1.83257495		 0.00004059		 0.00041062		-0.00011876
Si		3.83194690		2.79548623		5.49772434		-0.00004059		 0.00041062		 0.00011876
O		1.85420490		5.32395615		3.53320431		 0.00018666		-0.00012713		-0.00025859
O		3.25505627		2.59931090		3.79709498		-0.00018666		-0.00012713		 0.00025859
O		4.40885184		2.99710906		7.16903212		 0.00052746		-0.00015395		 0.00014700
O		0.70040983		0.27246483		0.16126718		-0.00052746		-0.00015395		-0.00014700
O		4.63492194		4.37578031		5.07989714		-0.00002572		-0.00004535		 0.00012630
O		0.47434025		1.65113506		2.25040215		 0.00002572		-0.00004535		-0.00012630
O		2.29781695		3.60198113		5.87890033		-0.00016002		-0.00028110		 0.00028527
O		2.81144524		0.87733588		1.45139896		 0.00016002		-0.00028110		-0.00028527
O		4.84599122		4.57195411		2.34569602		 0.00094038		 0.00017825		 0.00002983
O		0.26327097		1.84730886		4.98460327		-0.00094038		 0.00017825		-0.00002983
O		1.99853084		3.84174922		1.31945388		-0.00004635		-0.00035441		 0.00039011
O		3.11073084		1.11710397		6.01084490		 0.00004635		-0.00035441		-0.00039011
H		2.33481023		4.37578031		3.58451580		 0.00009795		 0.00004118		 0.00015983
H		2.77445196		1.65113506		3.74578298		-0.00009795		 0.00004118		-0.00015983
H		4.92013526		3.80905401		7.22034412		 0.00037750		-0.00002619		-0.00032292
H		0.18912692		1.08440876		0.10995415		-0.00037750		-0.00002619		 0.00032292
H		1.56163791		2.97531191		5.67365129		 0.00015022		-0.00028808		-0.00008949
H		3.54762427		0.25066717		1.65664801		-0.00015022		-0.00028808		 0.00008949
H		3.95984700		5.18227419		5.35844912		-0.00008285		 0.00022450		 0.00006024
H		1.14941518		2.45762996		1.97185017		 0.00008285		 0.00022450		-0.00006024
H		4.77904131		4.64279509		3.26198298		 0.00019147		 0.00000424		-0.00017404
H		0.33022088		1.91814984		4.06831631		-0.00019147		 0.00000424		 0.00017404
H		2.10639424		3.77635830		0.38850613		 0.00039925		 0.00044629		 0.00000341
H		3.00286794		1.05171304		6.94179317		-0.00039925		 0.00044629		-0.00000341
