# total energy = -9075.05525929 eV

CRYSTAL
PRIMVEC
		5.11310008		0.00000000		0.00000000
		0.00000000		4.80056695		0.00000000
		-0.00383994		0.00000000		7.33029878
PRIMECORD
   28 1
Mg		3.87988016		2.46749006		1.83990509		-0.00029794		 0.00001802		-0.00003825
Mg		1.22938202		0.06720812		5.49039420		 0.00029794		 0.00001802		 0.00003825
Si		1.27731580		0.06240692		1.83257495		-0.00001066		-0.00003259		 0.00004740
Si		3.83194690		2.46268988		5.49772434		 0.00001066		-0.00003259		-0.00004740
O		1.85420490		4.69015211		3.53320431		-0.00029339		-0.00032975		-0.00033842
O		3.25505627		2.28986915		3.79709498		 0.00029339		-0.00032975		 0.00033842
O		4.40885184		2.64031080		7.16903212		-0.00027833		 0.00041579		-0.00024998
O		0.70040983		0.24002784		0.16126718		 0.00027833		 0.00041579		 0.00024998
O		4.63492194		3.85485307		5.07989714		-0.00017274		 0.00019183		-0.00044501
O		0.47434025		1.45457113		2.25040215		 0.00017274		 0.00019183		 0.00044501
O		2.29781695		3.17317304		5.87890033		 0.00012009		 0.00002775		-0.00009089
O		2.81144524		0.77289110		1.45139896		-0.00012009		 0.00002775		 0.00009089
O		4.84599122		4.02767381		2.34569602		-0.00000130		-0.00015052		 0.00014769
O		0.26327097		1.62739085		4.98460327		 0.00000130		-0.00015052		-0.00014769
O		1.99853084		3.38439827		1.31945388		 0.00092882		 0.00028794		 0.00029774
O		3.11073084		0.98411582		6.01084490		-0.00092882		 0.00028794		-0.00029774
H		2.33481023		3.85485307		3.58451580		-0.00033248		-0.00007882		 0.00009549
H		2.77445196		1.45457113		3.74578298		 0.00033248		-0.00007882		-0.00009549
H		4.92013526		3.35559515		7.22034412		-0.00014511		 0.00018029		 0.00040525
H		0.18912692		0.95531219		0.10995415		 0.00014511		 0.00018029		-0.00040525
H		1.56163791		2.62110804		5.67365129		 0.00029967		-0.00004087		-0.00016804
H		3.54762427		0.22082610		1.65664801		-0.00029967		-0.00004087		 0.00016804
H		3.95984700		4.56533725		5.35844912		 0.00040616		-0.00002848		 0.00026144
H		1.14941518		2.16505480		1.97185017		-0.00040616		-0.00002848		-0.00026144
H		4.77904131		4.09008124		3.26198298		 0.00006178		-0.00051778		 0.00040575
H		0.33022088		1.68979879		4.06831631		-0.00006178		-0.00051778		-0.00040575
H		2.10639424		3.32679102		0.38850613		 0.00001080		 0.00005718		-0.00009112
H		3.00286794		0.92650907		6.94179317		-0.00001080		 0.00005718		 0.00009112
