# total energy = -9074.39068541 eV

CRYSTAL
PRIMVEC
		5.11310008		0.00000000		0.00000000
		0.00000000		4.67082204		0.00000000
		-0.00383994		0.00000000		7.33029878
PRIMECORD
   28 1
Mg		3.87988016		2.40080092		1.83990509		-0.00052727		 0.00020100		 0.00007983
Mg		1.22938202		0.06539093		5.49039420		 0.00052727		 0.00020100		-0.00007983
Si		1.27731580		0.06072113		1.83257495		-0.00015949		-0.00004653		 0.00006520
Si		3.83194690		2.39613113		5.49772434		 0.00015949		-0.00004653		-0.00006520
O		1.85420490		4.56339120		3.53320431		-0.00032444		-0.00030415		-0.00047327
O		3.25505627		2.22798121		3.79709498		 0.00032444		-0.00030415		 0.00047327
O		4.40885184		2.56895084		7.16903212		-0.00023362		 0.00039998		-0.00022665
O		0.70040983		0.23354085		0.16126718		 0.00023362		 0.00039998		 0.00022665
O		4.63492194		3.75066804		5.07989714		-0.00018309		 0.00011427		-0.00047191
O		0.47434025		1.41525804		2.25040215		 0.00018309		 0.00011427		 0.00047191
O		2.29781695		3.08741203		5.87890033		-0.00003654		 0.00004569		 0.00020040
O		2.81144524		0.75200204		1.45139896		 0.00003654		 0.00004569		-0.00020040
O		4.84599122		3.91881796		2.34569602		 0.00013607		-0.00034866		 0.00007000
O		0.26327097		1.58340796		4.98460327		-0.00013607		-0.00034866		-0.00007000
O		1.99853084		3.29292798		1.31945388		 0.00083129		 0.00016843		 0.00011768
O		3.11073084		0.95751798		6.01084490		-0.00083129		 0.00016843		-0.00011768
H		2.33481023		3.75066804		3.58451580		-0.00044678		 0.00004110		-0.00005853
H		2.77445196		1.41525804		3.74578298		 0.00044678		 0.00004110		 0.00005853
H		4.92013526		3.26490308		7.22034412		-0.00008120		 0.00019326		 0.00027994
H		0.18912692		0.92949308		0.10995415		 0.00008120		 0.00019326		-0.00027994
H		1.56163791		2.55026809		5.67365129		 0.00039421		-0.00002376		-0.00032411
H		3.54762427		0.21485809		1.65664801		-0.00039421		-0.00002376		 0.00032411
H		3.95984700		4.44194996		5.35844912		 0.00014575		-0.00019955		 0.00020841
H		1.14941518		2.10653997		1.97185017		-0.00014575		-0.00019955		-0.00020841
H		4.77904131		3.97953806		3.26198298		 0.00014942		-0.00044697		 0.00057476
H		0.33022088		1.64412909		4.06831631		-0.00014942		-0.00044697		-0.00057476
H		2.10639424		3.23687817		0.38850613		-0.00014935		 0.00020586		 0.00003755
H		3.00286794		0.90146818		6.94179317		 0.00014935		 0.00020586		-0.00003755
