# total energy = -44013.0469601 eV

CRYSTAL
PRIMVEC
		9.81799975		0.00000000		0.00000000
		0.00000000		18.04700533		0.00000000
		-1.33411890		0.00000000		5.10350427
PRIMECORD
   82 1
Si		2.35753443		1.51594825		1.51267886		 0.00011134		-0.00003282		-0.00010439
Si		6.12634446		16.53105217		3.59082443		-0.00011134		 0.00003282		 0.00010439
Si		6.12634446		1.51594825		3.59082443		-0.00011134		-0.00003282		 0.00010439
Si		2.35753443		16.53105217		1.51267886		 0.00011134		 0.00003282		-0.00010439
Si		7.26653430		10.53944797		1.51267886		 0.00002331		-0.00007074		-0.00012755
Si		1.21734557		7.50755245		3.59082443		-0.00002331		 0.00007074		 0.00012755
Si		1.21734557		10.53944797		3.59082443		-0.00002331		-0.00007074		 0.00012755
Si		7.26653430		7.50755245		1.51267886		 0.00002331		 0.00007074		-0.00012755
Si		1.76155730		3.08784241		4.10423807		 0.00037855		-0.00011607		-0.00001531
Si		6.72232257		14.95915899		0.99926620		-0.00037855		 0.00011607		 0.00001531
Si		6.72232257		3.08784241		0.99926620		-0.00037855		-0.00011607		 0.00001531
Si		1.76155730		14.95915899		4.10423807		 0.00037855		 0.00011607		-0.00001531
Si		6.67055717		12.11134311		4.10423807		 0.00019933		-0.00029394		-0.00002436
Si		1.81332172		5.93565829		0.99926620		-0.00019933		 0.00029394		 0.00002436
Si		1.81332172		12.11134311		0.99926620		-0.00019933		-0.00029394		 0.00002436
Si		6.67055717		5.93565829		4.10423807		 0.00019933		 0.00029394		-0.00002436
O		2.58846753		2.13856947		3.00290199		-0.00011547		-0.00036095		 0.00010544
O		5.89541038		15.90843095		2.10060228		 0.00011547		 0.00036095		-0.00010544
O		5.89541038		2.13856947		2.10060228		 0.00011547		-0.00036095		-0.00010544
O		2.58846753		15.90843095		3.00290199		-0.00011547		 0.00036095		 0.00010544
O		7.49746838		11.16207017		3.00290199		-0.00010213		-0.00032780		 0.00013659
O		0.98641051		6.88493123		2.10060228		 0.00010213		 0.00032780		-0.00013659
O		0.98641051		11.16207017		2.10060228		 0.00010213		-0.00032780		-0.00013659
O		7.49746838		6.88493123		3.00290199		-0.00010213		 0.00032780		 0.00013659
O		0.80703271		1.55204216		1.10797109		-0.00010925		-0.00017560		 0.00028736
O		7.67684716		16.49495727		3.99553318		 0.00010925		 0.00017560		-0.00028736
O		7.67684716		1.55204216		3.99553318		 0.00010925		-0.00017560		-0.00028736
O		0.80703271		16.49495727		1.10797109		-0.00010925		 0.00017560		 0.00028736
O		5.71603258		10.57554286		1.10797109		-0.00006960		-0.00016764		 0.00029715
O		2.76784729		7.47145756		3.99553318		 0.00006960		 0.00016764		-0.00029715
O		2.76784729		10.57554286		3.99553318		 0.00006960		-0.00016764		-0.00029715
O		5.71603258		7.47145756		1.10797109		-0.00006960		 0.00016764		 0.00029715
O		2.52914030		4.47565595		4.04860928		-0.00017679		-0.00010483		 0.00013050
O		5.95473957		13.57134349		1.05489400		 0.00017679		 0.00010483		-0.00013050
O		5.95473957		4.47565595		1.05489400		 0.00017679		-0.00010483		-0.00013050
O		2.52914030		13.57134349		4.04860928		-0.00017679		 0.00010483		 0.00013050
O		7.43813919		13.49915665		4.04860928		-0.00007646		 0.00005054		 0.00014391
O		1.04573970		4.54784377		1.05489400		 0.00007646		-0.00005054		-0.00014391
O		1.04573970		13.49915665		1.05489400		 0.00007646		 0.00005054		-0.00014391
O		7.43813919		4.54784377		4.04860928		-0.00007646		-0.00005054		 0.00014391
O		2.91896987		0.00000000		1.49073268		-0.00059062		0.00000000		 0.00023572
O		5.56491000		0.00000000		3.61276962		 0.00059062		0.00000000		-0.00023572
O		7.82796876		9.02349972		1.49073268		-0.00058557		0.00000000		 0.00024008
O		0.65591013		9.02349972		3.61276962		 0.00058557		0.00000000		-0.00024008
O		0.19753030		3.08964696		3.69493646		 0.00009530		 0.00031440		 0.00019592
O		8.28634957		14.95735346		1.40856682		-0.00009530		-0.00031440		-0.00019592
O		8.28634957		3.08964696		1.40856682		-0.00009530		 0.00031440		-0.00019592
O		0.19753030		14.95735346		3.69493646		 0.00009530		-0.00031440		 0.00019592
O		5.10653018		12.11314766		3.69493646		 0.00019652		 0.00034248		 0.00021868
O		3.37734970		5.93385374		1.40856682		-0.00019652		-0.00034248		-0.00021868
O		3.37734970		12.11314766		1.40856682		-0.00019652		 0.00034248		-0.00021868
O		5.10653018		5.93385374		3.69493646		 0.00019652		-0.00034248		 0.00021868
O		0.12189047		0.00000000		3.65002599		 0.00035122		0.00000000		-0.00019562
O		8.36198940		0.00000000		1.45347828		-0.00035122		0.00000000		 0.00019562
O		5.03089034		9.02349972		3.65002599		 0.00023156		0.00000000		-0.00022762
O		3.45298953		9.02349972		1.45347828		-0.00023156		0.00000000		 0.00022762
O		3.26959224		2.42371167		0.50626810		 0.00019610		 0.00028261		 0.00014695
O		5.21428665		15.62328875		4.59723617		-0.00019610		-0.00028261		-0.00014695
O		5.21428665		2.42371167		4.59723617		-0.00019610		 0.00028261		-0.00014695
O		3.26959224		15.62328875		0.50626810		 0.00019610		-0.00028261		 0.00014695
O		8.17859310		11.44721237		0.50626810		 0.00022992		 0.00032987		 0.00012358
O		0.30528678		6.59978805		4.59723617		-0.00022992		-0.00032987		-0.00012358
O		0.30528678		11.44721237		4.59723617		-0.00022992		 0.00032987		-0.00012358
O		8.17859310		6.59978805		0.50626810		 0.00022992		-0.00032987		 0.00012358
Ca		-0.66706043		5.00984644		2.55175213		0.00000000		 0.00031677		0.00000000
Ca		-0.66706043		13.03715398		2.55175213		0.00000000		-0.00031677		0.00000000
Ca		4.24193944		14.03334812		2.55175213		0.00000000		 0.00029137		0.00000000
Ca		4.24193944		4.01365328		2.55175213		0.00000000		-0.00029137		0.00000000
Mg		0.00000000		0.00000000		0.00000000		0.00000000		0.00000000		0.00000000
Mg		4.90899987		9.02349972		0.00000000		0.00000000		0.00000000		0.00000000
Mg		0.00000000		3.18709944		0.00000000		0.00000000		 0.00052224		0.00000000
Mg		0.00000000		14.85990098		0.00000000		0.00000000		-0.00052224		0.00000000
Mg		4.90899987		12.21060014		0.00000000		0.00000000		 0.00058499		0.00000000
Mg		4.90899987		5.83640028		0.00000000		0.00000000		-0.00058499		0.00000000
Mg		-0.66706043		1.58452698		2.55175213		0.00000000		 0.00034713		0.00000000
Mg		-0.66706043		16.46247344		2.55175213		0.00000000		-0.00034713		0.00000000
Mg		4.24193944		10.60802768		2.55175213		0.00000000		 0.00034228		0.00000000
Mg		4.24193944		7.43897372		2.55175213		0.00000000		-0.00034228		0.00000000
H		0.92650893		0.00000000		3.92969760		-0.00031862		0.00000000		-0.00040755
H		7.55736996		0.00000000		1.17380569		 0.00031862		0.00000000		 0.00040755
H		5.83550880		9.02349972		3.92969760		-0.00022322		0.00000000		-0.00038138
H		2.64837009		9.02349972		1.17380569		 0.00022322		0.00000000		 0.00038138
