# total energy = -24714.8502978 eV	

CRYSTAL	
PRIMVEC	
		9.27319965		0.00000000		0.00000000	
		0.00000000		8.07210701		0.00000000	
		0.00000000		0.00000000		5.32170382	
PRIMCOORD
   40 1	
Mg		0.00000000		7.30363974		1.33042503		0.00000000		 0.00061410		-0.00000000	
Mg		0.00000000		0.76846356		3.99127508		0.00000000		-0.00061410		0.00000000	
Mg		4.63659983		4.80451707		3.99127508		0.00000000		-0.00061410		0.00000000	
Mg		4.63659983		3.26758809		1.33042503		0.00000000		 0.00061410		0.00000000	
Mg		0.00000000		2.13668615		1.33042503		0.00000000		 0.00091781		-0.00000000	
Mg		0.00000000		5.93541901		3.99127508		0.00000000		-0.00091781		0.00000000	
Mg		4.63659983		1.89936550		3.99127508		0.00000000		-0.00091781		-0.00000000	
Mg		4.63659983		6.17273780		1.33042503		0.00000000		 0.00091781		0.00000000	
Si		2.70591966		0.73940507		0.35442540		-0.00008678		 0.00002476		 0.00017305	
Si		6.56727999		7.33270009		4.96727471		 0.00008678		-0.00002476		-0.00017305	
Si		1.93068017		3.29664751		3.01527453		 0.00008678		-0.00002476		 0.00017305	
Si		7.34251948		4.77545672		2.30642465		-0.00008678		 0.00002476		-0.00017305	
Si		6.56727999		0.73940507		2.30642465		 0.00008678		 0.00002476		-0.00017305	
Si		2.70591966		7.33270009		3.01527453		-0.00008678		-0.00002476		 0.00017305	
Si		7.34251948		3.29664751		4.96727471		-0.00008678		-0.00002476		-0.00017305	
Si		1.93068017		4.77545672		0.35442540		 0.00008678		 0.00002476		 0.00017305	
O		1.08774632		0.75554878		0.42147898		 0.00001519		-0.00010102		-0.00013495	
O		8.18545333		7.31655545		4.90022113		-0.00001519		 0.00010102		 0.00013495	
O		3.54885351		3.28050287		3.08232903		-0.00001519		 0.00010102		-0.00013495	
O		5.72434614		4.79160043		2.23937107		 0.00001519		-0.00010102		 0.00013495	
O		8.18545333		0.75554878		2.23937107		-0.00001519		-0.00010102		 0.00013495	
O		1.08774632		7.31655545		3.08232903		 0.00001519		 0.00010102		-0.00013495	
O		5.72434614		3.28050287		4.90022113		 0.00001519		 0.00010102		 0.00013495	
O		3.54885351		4.79160043		0.42147898		-0.00001519		-0.00010102		-0.00013495	
O		3.49321524		2.02286968		0.37251927		 0.00050252		 0.00001936		-0.00010472	
O		5.77998442		6.04923455		4.94918084		-0.00050252		-0.00001936		 0.00010472	
O		1.14338459		2.01318290		3.03336932		-0.00050252		-0.00001936		-0.00010472	
O		8.12981506		6.05892133		2.28833079		 0.00050252		 0.00001936		 0.00010472	
O		5.77998442		2.02286968		2.28833079		-0.00050252		 0.00001936		 0.00010472	
O		3.49321524		6.04923455		3.03336932		 0.00050252		-0.00001936		-0.00010472	
O		8.12981506		2.01318290		4.94918084		 0.00050252		-0.00001936		 0.00010472	
O		1.14338459		6.05892133		0.37251927		-0.00050252		 0.00001936		-0.00010472	
O		3.24747452		7.86465163		1.53903585		-0.00006630		-0.00019471		 0.00002810	
O		6.02572513		0.20745260		3.78266425		 0.00006630		 0.00019471		-0.00002810	
O		1.38912531		4.24350518		4.19988591		 0.00006630		 0.00019471		 0.00002810	
O		7.88407434		3.82859905		1.12181420		-0.00006630		-0.00019471		-0.00002810	
O		6.02572513		7.86465163		1.12181420		 0.00006630		-0.00019471		-0.00002810	
O		3.24747452		0.20745260		4.19988591		-0.00006630		 0.00019471		 0.00002810	
O		7.88407434		4.24350518		3.78266425		-0.00006630		 0.00019471		-0.00002810	
O		1.38912531		3.82859905		1.53903585		 0.00006630		-0.00019471		 0.00002810	
