# total energy = -24715.775596 eV	

CRYSTAL	
PRIMVEC	
		9.27319965		0.00000000		0.00000000	
		0.00000000		8.29026831		0.00000000	
		0.00000000		0.00000000		5.32170382	
PRIMCOORD
   40 1	
Mg		0.00000000		7.50103556		1.33042503		0.00000000		-0.00033552		0.00000000	
Mg		0.00000000		0.78923368		3.99127508		0.00000000		 0.00033552		0.00000000	
Mg		4.63659983		4.93436876		3.99127508		0.00000000		 0.00033552		-0.00000000	
Mg		4.63659983		3.35590048		1.33042503		0.00000000		-0.00033552		-0.00000000	
Mg		0.00000000		2.19443408		1.33042503		0.00000000		-0.00006747		0.00000000	
Mg		0.00000000		6.09583516		3.99127508		0.00000000		 0.00006747		0.00000000	
Mg		4.63659983		1.95070008		3.99127508		0.00000000		 0.00006747		-0.00000000	
Mg		4.63659983		6.33956916		1.33042503		-0.00000000		-0.00006747		0.00000000	
Si		2.70591966		0.75938881		0.35442540		 0.00020549		 0.00053920		 0.00024508	
Si		6.56727999		7.53088042		4.96727471		-0.00020549		-0.00053920		-0.00024508	
Si		1.93068017		3.38574627		3.01527453		-0.00020549		-0.00053920		 0.00024508	
Si		7.34251948		4.90452389		2.30642465		 0.00020549		 0.00053920		-0.00024508	
Si		6.56727999		0.75938881		2.30642465		-0.00020549		 0.00053920		-0.00024508	
Si		2.70591966		7.53088042		3.01527453		 0.00020549		-0.00053920		 0.00024508	
Si		7.34251948		3.38574627		4.96727471		 0.00020549		-0.00053920		-0.00024508	
Si		1.93068017		4.90452389		0.35442540		-0.00020549		 0.00053920		 0.00024508	
O		1.08774632		0.77596929		0.42147898		 0.00033978		-0.00009909		-0.00047299	
O		8.18545333		7.51430087		4.90022113		-0.00033978		 0.00009909		 0.00047299	
O		3.54885351		3.36916579		3.08232903		-0.00033978		 0.00009909		-0.00047299	
O		5.72434614		4.92110345		2.23937107		 0.00033978		-0.00009909		 0.00047299	
O		8.18545333		0.77596929		2.23937107		-0.00033978		-0.00009909		 0.00047299	
O		1.08774632		7.51430087		3.08232903		 0.00033978		 0.00009909		-0.00047299	
O		5.72434614		3.36916579		4.90022113		 0.00033978		 0.00009909		 0.00047299	
O		3.54885351		4.92110345		0.42147898		-0.00033978		-0.00009909		-0.00047299	
O		3.49321524		2.07754168		0.37251927		 0.00071476		 0.00070819		 0.00039525	
O		5.77998442		6.21272755		4.94918084		-0.00071476		-0.00070819		-0.00039525	
O		1.14338459		2.06759247		3.03336932		-0.00071476		-0.00070819		 0.00039525	
O		8.12981506		6.22267584		2.28833079		 0.00071476		 0.00070819		-0.00039525	
O		5.77998442		2.07754168		2.28833079		-0.00071476		 0.00070819		-0.00039525	
O		3.49321524		6.21272755		3.03336932		 0.00071476		-0.00070819		 0.00039525	
O		8.12981506		2.06759247		4.94918084		 0.00071476		-0.00070819		-0.00039525	
O		1.14338459		6.22267584		0.37251927		-0.00071476		 0.00070819		 0.00039525	
O		3.24747452		8.07721005		1.53903585		-0.00068204		-0.00006339		 0.00018677	
O		6.02572513		0.21306011		3.78266425		 0.00068204		 0.00006339		-0.00018677	
O		1.38912531		4.35819519		4.19988591		 0.00068204		 0.00006339		 0.00018677	
O		7.88407434		3.93207497		1.12181420		-0.00068204		-0.00006339		-0.00018677	
O		6.02572513		8.07721005		1.12181420		 0.00068204		-0.00006339		-0.00018677	
O		3.24747452		0.21306011		4.19988591		-0.00068204		 0.00006339		 0.00018677	
O		7.88407434		4.35819519		3.78266425		-0.00068204		 0.00006339		-0.00018677	
O		1.38912531		3.93207497		1.53903585		 0.00068204		-0.00006339		 0.00018677	
