# total energy = -24715.5366178 eV	

CRYSTAL	
PRIMVEC	
		9.27319965		0.00000000		0.00000000	
		0.00000000		9.59926390		0.00000000	
		0.00000000		0.00000000		5.32170382	
PRIMCOORD
   40 1	
Mg		0.00000000		8.68540955		1.33042503		0.00000000		 0.00026838		-0.00000000	
Mg		0.00000000		0.91384972		3.99127508		0.00000000		-0.00026838		0.00000000	
Mg		4.63659983		5.71347888		3.99127508		0.00000000		-0.00026838		0.00000000	
Mg		4.63659983		3.88577945		1.33042503		0.00000000		 0.00026838		0.00000000	
Mg		0.00000000		2.54092347		1.33042503		0.00000000		-0.00047396		0.00000000	
Mg		0.00000000		7.05833579		3.99127508		0.00000000		 0.00047396		0.00000000	
Mg		4.63659983		2.25870570		3.99127508		0.00000000		 0.00047396		0.00000000	
Mg		4.63659983		7.34055357		1.33042503		0.00000000		-0.00047396		0.00000000	
Si		2.70591966		0.87929221		0.35442540		-0.00007509		-0.00001191		-0.00003031	
Si		6.56727999		8.71996705		4.96727471		 0.00007509		 0.00001191		 0.00003031	
Si		1.93068017		3.92033788		3.01527453		 0.00007509		 0.00001191		-0.00003031	
Si		7.34251948		5.67892138		2.30642465		-0.00007509		-0.00001191		 0.00003031	
Si		6.56727999		0.87929221		2.30642465		 0.00007509		-0.00001191		 0.00003031	
Si		2.70591966		8.71996705		3.01527453		-0.00007509		 0.00001191		-0.00003031	
Si		7.34251948		3.92033788		4.96727471		-0.00007509		 0.00001191		 0.00003031	
Si		1.93068017		5.67892138		0.35442540		 0.00007509		-0.00001191		-0.00003031	
O		1.08774632		0.89849051		0.42147898		 0.00000501		 0.00000421		-0.00004089	
O		8.18545333		8.70076875		4.90022113		-0.00000501		-0.00000421		 0.00004089	
O		3.54885351		3.90113865		3.08232903		-0.00000501		-0.00000421		-0.00004089	
O		5.72434614		5.69811968		2.23937107		 0.00000501		 0.00000421		 0.00004089	
O		8.18545333		0.89849051		2.23937107		-0.00000501		 0.00000421		 0.00004089	
O		1.08774632		8.70076875		3.08232903		 0.00000501		-0.00000421		-0.00004089	
O		5.72434614		3.90113865		4.90022113		 0.00000501		-0.00000421		 0.00004089	
O		3.54885351		5.69811968		0.42147898		-0.00000501		 0.00000421		-0.00004089	
O		3.49321524		2.40557463		0.37251927		-0.00018552		 0.00006058		-0.00013489	
O		5.77998442		7.19368463		4.94918084		 0.00018552		-0.00006058		 0.00013489	
O		1.14338459		2.39405454		3.03336932		 0.00018552		-0.00006058		-0.00013489	
O		8.12981506		7.20520380		2.28833079		-0.00018552		 0.00006058		 0.00013489	
O		5.77998442		2.40557463		2.28833079		 0.00018552		 0.00006058		 0.00013489	
O		3.49321524		7.19368463		3.03336932		-0.00018552		-0.00006058		-0.00013489	
O		8.12981506		2.39405454		4.94918084		-0.00018552		-0.00006058		 0.00013489	
O		1.14338459		7.20520380		0.37251927		 0.00018552		 0.00006058		-0.00013489	
O		3.24747452		9.35255877		1.53903585		-0.00047317		-0.00033862		-0.00022055	
O		6.02572513		0.24670142		3.78266425		 0.00047317		 0.00033862		 0.00022055	
O		1.38912531		5.04633059		4.19988591		 0.00047317		 0.00033862		-0.00022055	
O		7.88407434		4.55292867		1.12181420		-0.00047317		-0.00033862		 0.00022055	
O		6.02572513		9.35255877		1.12181420		 0.00047317		-0.00033862		 0.00022055	
O		3.24747452		0.24670142		4.19988591		-0.00047317		 0.00033862		-0.00022055	
O		7.88407434		5.04633059		3.78266425		-0.00047317		 0.00033862		 0.00022055	
O		1.38912531		4.55292867		1.53903585		 0.00047317		-0.00033862		-0.00022055	
