# total energy = -24716.4390543 eV	

CRYSTAL	
PRIMVEC	
		9.27319965		0.00000000		0.00000000	
		0.00000000		9.16293203		0.00000000	
		0.00000000		0.00000000		5.32170382	
PRIMCOORD
   40 1	
Mg		0.00000000		8.29061883		1.33042503		0.00000000		 0.00068379		0.00000000	
Mg		0.00000000		0.87231134		3.99127508		0.00000000		-0.00068379		0.00000000	
Mg		4.63659983		5.45377551		3.99127508		0.00000000		-0.00068379		0.00000000	
Mg		4.63659983		3.70915374		1.33042503		0.00000000		 0.00068379		-0.00000000	
Mg		0.00000000		2.42542670		1.33042503		0.00000000		-0.00030343		0.00000000	
Mg		0.00000000		6.73750163		3.99127508		0.00000000		 0.00030343		-0.00000000	
Mg		4.63659983		2.15603654		3.99127508		0.00000000		 0.00030343		0.00000000	
Mg		4.63659983		7.00689179		1.33042503		0.00000000		-0.00030343		0.00000000	
Si		2.70591966		0.83932379		0.35442540		-0.00025496		 0.00006185		-0.00065627	
Si		6.56727999		8.32360453		4.96727471		 0.00025496		-0.00006185		 0.00065627	
Si		1.93068017		3.74213944		3.01527453		 0.00025496		-0.00006185		-0.00065627	
Si		7.34251948		5.42078888		2.30642465		-0.00025496		 0.00006185		 0.00065627	
Si		6.56727999		0.83932379		2.30642465		 0.00025496		 0.00006185		 0.00065627	
Si		2.70591966		8.32360453		3.01527453		-0.00025496		-0.00006185		-0.00065627	
Si		7.34251948		3.74213944		4.96727471		-0.00025496		-0.00006185		 0.00065627	
Si		1.93068017		5.42078888		0.35442540		 0.00025496		 0.00006185		-0.00065627	
O		1.08774632		0.85765042		0.42147898		-0.00089320		-0.00017845		 0.00002408	
O		8.18545333		8.30527976		4.90022113		 0.00089320		 0.00017845		-0.00002408	
O		3.54885351		3.72381467		3.08232903		 0.00089320		 0.00017845		 0.00002408	
O		5.72434614		5.43911458		2.23937107		-0.00089320		-0.00017845		-0.00002408	
O		8.18545333		0.85765042		2.23937107		 0.00089320		-0.00017845		-0.00002408	
O		1.08774632		8.30527976		3.08232903		-0.00089320		 0.00017845		 0.00002408	
O		5.72434614		3.72381467		4.90022113		-0.00089320		 0.00017845		-0.00002408	
O		3.54885351		5.43911458		0.42147898		 0.00089320		-0.00017845		 0.00002408	
O		3.49321524		2.29622970		0.37251927		 0.00002750		-0.00062883		-0.00021199	
O		5.77998442		6.86669955		4.94918084		-0.00002750		 0.00062883		 0.00021199	
O		1.14338459		2.28523446		3.03336932		-0.00002750		 0.00062883		-0.00021199	
O		8.12981506		6.87769479		2.28833079		 0.00002750		-0.00062883		 0.00021199	
O		5.77998442		2.29622970		2.28833079		-0.00002750		-0.00062883		 0.00021199	
O		3.49321524		6.86669955		3.03336932		 0.00002750		 0.00062883		-0.00021199	
O		8.12981506		2.28523446		4.94918084		 0.00002750		 0.00062883		 0.00021199	
O		1.14338459		6.87769479		0.37251927		-0.00002750		-0.00062883		-0.00021199	
O		3.24747452		8.92744284		1.53903585		 0.00084862		 0.00002000		-0.00047292	
O		6.02572513		0.23548734		3.78266425		-0.00084862		-0.00002000		 0.00047292	
O		1.38912531		4.81695150		4.19988591		-0.00084862		-0.00002000		-0.00047292	
O		7.88407434		4.34597775		1.12181420		 0.00084862		 0.00002000		 0.00047292	
O		6.02572513		8.92744284		1.12181420		-0.00084862		 0.00002000		 0.00047292	
O		3.24747452		0.23548734		4.19988591		 0.00084862		-0.00002000		-0.00047292	
O		7.88407434		4.81695150		3.78266425		 0.00084862		-0.00002000		 0.00047292	
O		1.38912531		4.34597775		1.53903585		-0.00084862		 0.00002000		-0.00047292	
