# total energy = -18390.7559018 eV

CRYSTAL
PRIMVEC
		11.10979961		0.00000000		0.00000000
		0.00000000		6.70887469		0.00000000
		0.00000000		0.00000000		4.82809672
PRIMECORD
   28 1
Mg		0.00000000		0.00000000		0.00000000		0.00000000		0.00000000		0.00000000
Mg		5.55489981		0.00000000		2.41404947		0.00000000		0.00000000		0.00000000
Mg		0.00000000		3.35443512		0.00000000		0.00000000		0.00000000		0.00000000
Mg		5.55489981		3.35443512		2.41404947		0.00000000		-0.00000000		0.00000000
Ca		3.07563692		1.67721756		4.71922735		 0.00023151		0.00000000		-0.00022282
Ca		8.03416380		5.03165269		0.10887381		-0.00023151		0.00000000		 0.00022282
Ca		2.47926288		5.03165269		2.30517677		-0.00023151		0.00000000		-0.00022282
Ca		8.63053673		1.67721756		2.52292439		 0.00023151		0.00000000		 0.00022282
Si		0.90611526		1.67721756		1.98425243		-0.00053749		0.00000000		-0.00045338
Si		10.20368436		5.03165269		2.84384762		 0.00053749		0.00000000		 0.00045338
Si		4.64878455		5.03165269		4.39830301		 0.00053749		0.00000000		-0.00045338
Si		6.46101617		1.67721756		0.42979815		-0.00053749		0.00000000		 0.00045338
O		0.86289814		1.67721756		3.60031388		 0.00091442		0.00000000		 0.00062184
O		10.24690148		5.03165269		1.22778617		-0.00091442		0.00000000		-0.00062184
O		4.69200167		5.03165269		1.18626441		-0.00091442		0.00000000		 0.00062184
O		6.41779794		1.67721756		3.64183564		 0.00091442		0.00000000		-0.00062184
O		4.98841224		1.67721756		1.18771313		-0.00062689		0.00000000		 0.00044260
O		6.12138849		5.03165269		3.64038803		 0.00062689		0.00000000		-0.00044260
O		0.56648868		5.03165269		3.60176259		 0.00062689		0.00000000		 0.00044260
O		10.54331204		1.67721756		1.22633745		-0.00062689		0.00000000		-0.00044260
O		1.63902874		0.30659492		1.31951979		 0.00045693		-0.00028056		-0.00034634
O		9.47077088		6.40227533		3.50858026		-0.00045693		 0.00028056		 0.00034634
O		3.91587107		6.40227533		3.73357037		-0.00045693		 0.00028056		-0.00034634
O		7.19392854		0.30659492		1.09452968		 0.00045693		-0.00028056		 0.00034634
O		9.47077088		3.66103004		3.50858026		-0.00045693		-0.00028056		 0.00034634
O		1.63902874		3.04784021		1.31951979		 0.00045693		 0.00028056		-0.00034634
O		7.19392854		3.04784021		1.09452968		 0.00045693		 0.00028056		 0.00034634
O		3.91587107		3.66103004		3.73357037		-0.00045693		-0.00028056		-0.00034634
