# total energy = -18390.280298 eV

CRYSTAL
PRIMVEC
		11.10979961		0.00000000		0.00000000
		0.00000000		6.86860028		0.00000000
		0.00000000		0.00000000		4.82809672
PRIMECORD
   28 1
Mg		0.00000000		0.00000000		0.00000000		-0.00000000		0.00000000		-0.00000000
Mg		5.55489981		0.00000000		2.41404947		0.00000000		0.00000000		-0.00000000
Mg		0.00000000		3.43430236		0.00000000		0.00000000		0.00000000		0.00000000
Mg		5.55489981		3.43430236		2.41404947		-0.00000000		-0.00000000		0.00000000
Ca		3.07563692		1.71715063		4.71922735		 0.00020477		-0.00000000		-0.00030432
Ca		8.03416380		5.15145410		0.10887381		-0.00020477		0.00000000		 0.00030432
Ca		2.47926288		5.15145410		2.30517677		-0.00020477		0.00000000		-0.00030432
Ca		8.63053673		1.71715063		2.52292439		 0.00020477		-0.00000000		 0.00030432
Si		0.90611526		1.71715063		1.98425243		 0.00005670		0.00000000		-0.00016267
Si		10.20368436		5.15145410		2.84384762		-0.00005670		-0.00000000		 0.00016267
Si		4.64878455		5.15145410		4.39830301		-0.00005670		0.00000000		-0.00016267
Si		6.46101617		1.71715063		0.42979815		 0.00005670		0.00000000		 0.00016267
O		0.86289814		1.71715063		3.60031388		 0.00023608		0.00000000		 0.00035998
O		10.24690148		5.15145410		1.22778617		-0.00023608		0.00000000		-0.00035998
O		4.69200167		5.15145410		1.18626441		-0.00023608		0.00000000		 0.00035998
O		6.41779794		1.71715063		3.64183564		 0.00023608		0.00000000		-0.00035998
O		4.98841224		1.71715063		1.18771313		-0.00027421		0.00000000		 0.00028603
O		6.12138849		5.15145410		3.64038803		 0.00027421		0.00000000		-0.00028603
O		0.56648868		5.15145410		3.60176259		 0.00027421		0.00000000		 0.00028603
O		10.54331204		1.71715063		1.22633745		-0.00027421		0.00000000		-0.00028603
O		1.63902874		0.31389517		1.31951979		 0.00045873		-0.00026355		 0.00010001
O		9.47077088		6.55470956		3.50858026		-0.00045873		 0.00026355		-0.00010001
O		3.91587107		6.55470956		3.73357037		-0.00045873		 0.00026355		 0.00010001
O		7.19392854		0.31389517		1.09452968		 0.00045873		-0.00026355		-0.00010001
O		9.47077088		3.74819753		3.50858026		-0.00045873		-0.00026355		-0.00010001
O		1.63902874		3.12040720		1.31951979		 0.00045873		 0.00026355		 0.00010001
O		7.19392854		3.12040720		1.09452968		 0.00045873		 0.00026355		-0.00010001
O		3.91587107		3.74819753		3.73357037		-0.00045873		-0.00026355		 0.00010001
