# total energy = -13384.3793727 eV

CRYSTAL
PRIMVEC
		3.05300001		0.00000000		0.00000000
		-1.52650001		2.64397739		0.00000000
		0.00000000		0.00000000		21.13125105
PRIMECORD
   18 1
O		0.00000000		0.00000000		6.57815808		0.00000000		-0.00000000		-0.00039511
O		0.00000000		0.00000000		14.55309114		0.00000000		0.00000000		 0.00039511
O		1.52650001		0.88132508		9.04840114		0.00000000		0.00000000		-0.00001646
O		0.00000000		1.76264986		12.08284899		-0.00000000		-0.00000000		 0.00001646
O		1.52650001		0.88132508		1.51722408		0.00000000		0.00000000		 0.00015404
O		0.00000000		1.76264986		19.61402605		-0.00000000		-0.00000000		-0.00015404
O		0.00000000		1.76264986		3.98746714		-0.00000000		-0.00000000		 0.00019514
O		1.52650001		0.88132508		17.14378299		0.00000000		-0.00000000		-0.00019514
H		1.52650001		0.88132508		10.08805908		0.00000000		-0.00000000		-0.00050823
H		0.00000000		1.76264986		11.04319105		0.00000000		0.00000000		 0.00050823
H		1.52650001		0.88132508		0.47756614		0.00000000		-0.00000000		 0.00008700
H		0.00000000		1.76264986		20.65368399		0.00000000		0.00000000		-0.00008700
Mg		0.00000000		1.76264986		7.87984310		0.00000000		-0.00000000		 0.00045070
Mg		1.52650001		0.88132508		13.25140703		-0.00000000		-0.00000000		-0.00045070
Mg		0.00000000		0.00000000		2.68578212		0.00000000		-0.00000000		-0.00061746
Mg		0.00000000		0.00000000		18.44546801		0.00000000		0.00000000		 0.00061746
Mg		1.52650001		0.88132508		5.28492498		0.00000000		0.00000000		-0.00012648
Mg		0.00000000		1.76264986		15.84632393		0.00000000		-0.00000000		 0.00012648
