# total energy = -10317.1816728 eV	

CRYSTAL	
PRIMVEC	
		4.95124533		0.00000000		0.00000000	
		0.00000000		8.65555347		0.00000000	
		0.00000000		0.00000000		2.78114565	
PRIMCOORD
   14 1	
Si		0.00000000		0.00000000		0.00000000		-0.00000009		-0.00000023		 0.00000002	
Si		2.47562316		4.32777773		0.00000000		-0.00000010		 0.00000023		-0.00000002	
Mg		0.34368224		2.75593490		1.39057183		-0.00052916		-0.00016113		-0.00000000	
Mg		4.60756458		5.89962006		1.39057233		 0.00052925		 0.00016128		-0.00000000	
Mg		2.13194142		7.08371213		1.39057233		 0.00052924		-0.00016119		-0.00000000	
Mg		2.81930540		1.57184283		1.39057183		-0.00052916		 0.00016104		 0.00000001	
O		1.13723227		0.41153225		1.39057183		-0.00022796		-0.00007864		 0.00000001	
O		3.81401455		8.24402272		1.39057233		 0.00022788		 0.00007877		 0.00000001	
O		1.33839089		4.73930948		1.39057233		 0.00022784		-0.00007876		 0.00000002	
O		3.61285543		3.91624548		1.39057233		-0.00022794		 0.00007869		-0.00000002	
O		1.81978507		2.71296099		0.00000000		 0.00024273		-0.00007209		 0.00000001	
O		3.13146175		5.94259397		0.00000000		-0.00024262		 0.00007190		 0.00000001	
O		0.65583859		7.04073822		0.00000000		-0.00024263		-0.00007204		-0.00000002	
O		4.29540823		1.61481674		0.00000000		 0.00024272		 0.00007218		-0.00000003	
