# total energy = -10317.1503255 eV	

CRYSTAL	
PRIMVEC	
		5.10669602		0.00000000		0.00000000	
		0.00000000		9.17206411		0.00000000	
		0.00000000		0.00000000		2.85513849	
PRIMCOORD
   14 1	
Si		0.00000000		0.00000000		0.00000000		-0.00000021		-0.00000024		 0.00000004	
Si		2.55334901		4.58603156		0.00000000		 0.00000035		 0.00000001		-0.00000003	
Mg		0.16217170		2.73939234		1.42757024		 0.00031300		 0.00032651		 0.00000002	
Mg		4.94452681		6.43267078		1.42757124		-0.00031347		-0.00032636		-0.00000006	
Mg		2.39117730		7.32542340		1.42757024		-0.00031321		 0.00032551		0.00000000	
Mg		2.71552071		1.84663922		1.42757024		 0.00031367		-0.00032561		 0.00000003	
O		1.02721062		0.64728195		1.42756974		-0.00012516		 0.00023579		 0.00000007	
O		4.07948838		8.52478017		1.42757024		 0.00012507		-0.00023557		 0.00000002	
O		1.52613888		5.23331351		1.42757124		 0.00012501		 0.00023566		-0.00000010	
O		3.58055913		3.93874911		1.42757074		-0.00012485		-0.00023571		 0.00000004	
O		1.62605063		3.03959768		0.00000000		 0.00017351		 0.00034662		-0.00000002	
O		3.48064739		6.13246493		0.00000000		-0.00017374		-0.00034674		-0.00000006	
O		0.92729838		7.62562875		0.00000000		-0.00017372		 0.00034690		 0.00000003	
O		4.17940013		1.54643338		0.00000000		 0.00017376		-0.00034678		 0.00000003	
