# total energy = -18281.3530067 eV	

CRYSTAL	
PRIMVEC	
		5.33600200		0.00000000		-0.85376270	
		-2.66799830		4.62111334		0.42687865	
		-2.33823799		0.00000000		14.61400229	
PRIMCOORD
   28 1	
Mg		1.25994507		0.00000000		2.91409482		 0.01055797		-0.00000000		-0.00473390	
Mg		-1.39738275		1.53420926		3.33926693		 0.00355326		-0.00109683		 0.00452361	
Mg		1.27061717		3.08690192		2.91238720		 0.00355326		 0.00109683		 0.00452361	
Mg		1.88372125		0.00000000		9.93423211		 0.00634820		-0.00000000		-0.00477014	
Mg		-3.46295123		3.08690192		10.78969919		 0.00546580		 0.00685100		-0.00014585	
Mg		-0.79495077		1.53420926		10.36281892		 0.00546580		-0.00685100		-0.00014585	
Si		-0.06827681		3.08074096		0.42672896		 0.00088367		-0.00932053		 0.00386397	
Si		1.43060304		1.54037021		7.30684876		-0.00706128		 0.00636200		 0.00837906	
Si		-1.23739688		3.08074096		7.73372902		-0.00706128		-0.00636200		 0.00837906	
Si		2.59972311		1.54037075		-0.00015077		 0.00088367		 0.00932053		 0.00386397	
O		-0.32875681		3.08074096		2.05472777		-0.00945952		 0.00776410		-0.00217156	
O		1.17012303		1.54037021		8.93484811		 0.00308339		-0.01349651		 0.00236964	
O		-1.49787581		3.08074096		9.36172784		 0.00308339		 0.01349651		 0.00236964	
O		2.33924419		1.54037075		1.62784805		-0.00945952		-0.00776410		-0.00217156	
O		0.31878775		0.00000000		14.06071687		 0.00328357		0.00000000		-0.01650594	
O		-3.63518821		2.28282888		14.69335324		 0.00204278		 0.01827339		-0.00728595	
O		-0.96718775		2.33828284		14.26647298		 0.00204278		-0.01827339		-0.00728595	
O		1.55193990		0.00000000		6.74347216		 0.01096441		0.00000000		 0.00133309	
O		-2.49808390		2.33828284		7.39147497		-0.00003158		 0.00397991		-0.00033691	
O		0.16991602		2.28282888		6.96459524		-0.00003158		-0.00397991		-0.00033691	
O		2.88883120		0.00000000		3.60896918		 0.00467322		-0.00000000		-0.00923849	
O		-2.44717026		3.08074096		4.46272917		 0.01049632		 0.00916708		 0.00280556	
O		0.22083020		1.54037021		4.03584891		 0.01049632		-0.00916708		 0.00280556	
O		-0.05895621		0.00000000		11.20055591		-0.00294558		0.00000000		-0.01410115	
O		-2.72695613		1.54037021		11.62743617		-0.01369203		-0.00520881		 0.00302471	
O		-0.05895621		3.08074096		11.20055591		-0.01369203		 0.00520881		 0.00302471	
O		-0.33670698		0.00000000		2.10441581		-0.02128592		0.00000000		 0.02240921	
O		-1.50582706		0.00000000		9.41141587		-0.00215751		-0.00000000		-0.00444523	
