# total energy = -18276.4681456 eV	

CRYSTAL	
PRIMVEC	
		5.33600083		0.00000000		-0.64031881	
		-2.66799773		4.62111386		0.32016209	
		-1.75368191		0.00000000		14.61399977	
PRIMCOORD
   28 1	
Mg		1.38784702		0.00000000		2.98495675		 0.01483820		-0.00000000		 0.00844719	
Mg		-1.26948115		1.53420913		3.30383600		 0.02052071		 0.00544339		-0.00054717	
Mg		1.39851873		3.08690204		2.98367606		 0.02052071		-0.00544339		-0.00054717	
Mg		2.30390303		0.00000000		10.07681015		 0.01128274		-0.00000000		 0.00628376	
Mg		-3.04276897		3.08690204		10.71840966		 0.01873429		 0.01149940		-0.02087248	
Mg		-0.37476909		1.53420913		10.39824971		 0.01873429		-0.01149940		-0.02087248	
Si		-0.05120723		3.08074096		0.42672926		-0.00379876		-0.00827688		 0.00509335	
Si		1.73995223		1.54037021		7.41356920		-0.00240582		 0.00798777		 0.00485227	
Si		-0.92804819		3.08074096		7.73372915		-0.00240582		-0.00798777		 0.00485227	
Si		2.61679318		1.54037075		0.10656878		-0.00379876		 0.00827688		 0.00509335	
O		-0.24656721		3.08074096		2.05472822		-0.01256574		-0.00069287		 0.00779081	
O		1.54459225		1.54037021		9.04156816		-0.00188028		 0.00986396		 0.00421811	
O		-1.12340709		3.08074096		9.36172810		-0.00188028		-0.00986396		 0.00421811	
O		2.42143320		1.54037075		1.73456774		-0.01256574		 0.00069287		 0.00779081	
O		0.89808710		0.00000000		14.16615602		 0.00179661		-0.00000000		 0.00063670	
O		-3.05588921		2.28282886		14.64063309		 0.00274709		 0.00051376		-0.00886148	
O		-0.38788879		2.33828285		14.32047315		 0.00274709		-0.00051376		-0.00886148	
O		1.83895886		0.00000000		6.85147199		-0.00164242		0.00000000		 0.00485962	
O		-2.21106500		2.33828285		7.33747475		 0.00364779		 0.00348716		-0.00810949	
O		0.45693488		2.28282886		7.01731481		 0.00364779		-0.00348716		-0.00810949	
O		3.05595585		0.00000000		3.75126323		 0.04105616		-0.00000000		-0.04960291	
O		-2.28004391		3.08074096		4.39158312		-0.00226610		-0.02316581		 0.00299783	
O		0.38795597		1.54037021		4.07142318		-0.00226610		 0.02316581		 0.00299783	
O		0.40044903		0.00000000		11.27170272		 0.00512395		-0.00000000		 0.01382098	
O		-2.26754978		1.54037021		11.59186266		-0.02218446		-0.01093941		 0.00471770	
O		0.40045010		3.08074096		11.27170272		-0.02218446		 0.01093941		 0.00471770	
O		-0.25252998		0.00000000		2.10441614		-0.06327438		0.00000000		 0.03522842	
O		-1.12936986		0.00000000		9.41141602		-0.01027827		0.00000000		-0.00223265	
