# total energy = -18281.3336716 eV	

CRYSTAL	
PRIMVEC	
		5.33600200		0.00000000		0.85376270	
		-2.66799830		4.62111334		-0.42687865	
		2.33823799		0.00000000		14.61400229	
PRIMCOORD
   28 1	
Mg		2.28315905		0.00000000		3.48099096		-0.00417749		0.00000000		-0.00593218	
Mg		-0.37416877		1.53420926		3.05581886		 0.00654220		-0.00623283		-0.00268818	
Mg		2.29383115		3.08690192		3.48269913		 0.00654220		 0.00623283		-0.00268818	
Mg		5.24517485		0.00000000		11.07485488		-0.01310726		0.00000000		 0.00237959	
Mg		-0.10149709		3.08690192		10.21938781		-0.00103514		 0.00321797		 0.00351251	
Mg		2.56650283		1.53420926		10.64626807		-0.00103514		-0.00321797		 0.00351251	
Si		0.06827681		3.08074096		0.42672896		-0.00232659		-0.00249863		-0.00302680	
Si		3.90539680		1.54037021		8.16060875		-0.00289038		-0.01170139		-0.00063692	
Si		1.23739688		3.08074096		7.73372902		-0.00289038		 0.01170139		-0.00063692	
Si		2.73627727		1.54037075		0.85360923		-0.00232659		 0.00249863		-0.00302680	
O		0.32875681		3.08074096		2.05472777		 0.00156335		-0.00283794		 0.01191849	
O		4.16587627		1.54037021		9.78860811		 0.00511824		-0.00882514		-0.00451209	
O		1.49787581		3.08074096		9.36172784		 0.00511824		 0.00882514		-0.00451209	
O		2.99675727		1.54037075		2.48160804		 0.00156335		 0.00283794		 0.01191849	
O		4.95318002		0.00000000		14.90423221		-0.00021138		0.00000000		 0.00879515	
O		0.99920405		2.28282888		14.27159584		 0.00152465		-0.00997673		 0.00023435	
O		3.66720397		2.33828284		14.69847611		 0.00152465		 0.00997673		 0.00023435	
O		3.84809201		0.00000000		7.60747681		-0.00303518		0.00000000		-0.01144347	
O		-0.20193178		2.33828284		6.95947291		-0.00075320		-0.00844348		 0.00095942	
O		2.46606814		2.28282888		7.38635318		-0.00075320		 0.00844348		 0.00095942	
O		4.22583598		0.00000000		4.74731584		-0.00129427		-0.00000000		-0.01132327	
O		-1.11016386		3.08074096		3.89355584		 0.00208819		 0.00039854		 0.00663836	
O		1.55783606		1.54037021		4.32043611		 0.00208819		-0.00039854		 0.00663836	
O		3.61628926		0.00000000		11.76972924		-0.00465414		-0.00000000		-0.01843833	
O		0.94828988		1.54037021		11.34284897		-0.00289877		 0.00712468		 0.00016725	
O		3.61628980		3.08074096		11.76972924		-0.00289877		-0.00712468		 0.00016725	
O		0.33670698		0.00000000		2.10441581		 0.00769811		0.00000000		-0.00989253	
O		1.50582706		0.00000000		9.41141587		 0.00491652		-0.00000000		 0.02072224	
