# total energy = -14248.8619022 eV	

CRYSTAL	
PRIMVEC	
		7.72999786		-0.61839828		0.00000000	
		-0.61839828		7.72999786		0.00000000	
		0.00000000		0.00000000		5.00999927	
PRIMCOORD
   24 1	
Ca		2.44577236		1.11002820		2.55509963		-0.00024129		 0.00024129		 0.00005070	
Ca		4.66582800		6.00157215		2.55509963		 0.00024129		-0.00024129		 0.00005070	
Ca		0.89977201		5.07397164		2.45489964		-0.00057591		-0.00057591		 0.00023682	
Ca		6.21182834		2.03762795		2.45489964		 0.00057591		 0.00057591		 0.00023682	
Si		0.85957632		2.69622425		4.75950008		 0.00010894		-0.00010894		 0.00019479	
Si		6.25202404		4.41537611		4.75950008		-0.00010894		 0.00010894		 0.00019479	
Si		2.25097594		6.42517633		0.25049996		-0.00016687		-0.00016687		 0.00000267	
Si		4.86062365		0.68642403		0.25049996		 0.00016687		 0.00016687		 0.00000267	
Mg		0.00000000		0.00000000		0.00000000		0.00000000		0.00000000		 0.00019957	
Mg		3.55579979		3.55579979		0.00000000		0.00000000		0.00000000		 0.00019957	
O		3.86499971		-0.30919991		0.95189986		0.00000000		0.00000000		-0.00093253	
O		-0.30919991		3.86499971		4.05810018		0.00000000		0.00000000		 0.00040554	
O		0.85957632		2.69622425		1.30259981		 0.00025992		-0.00025992		 0.00025465	
O		6.25202404		4.41537611		1.30259981		-0.00025992		 0.00025992		 0.00025465	
O		2.25097594		6.42517633		3.70740023		-0.00004421		-0.00004421		 0.00010050	
O		4.86062365		0.68642403		3.70740023		 0.00004421		 0.00004421		 0.00010050	
O		0.50708814		1.34192775		4.05810018		 0.00015955		 0.00009135		-0.00025789	
O		6.60451222		5.76967183		4.05810018		-0.00015955		-0.00009135		-0.00025789	
O		0.82247165		7.00028789		0.95189986		-0.00012939		 0.00035938		-0.00013022	
O		6.28912794		0.11131169		0.95189986		 0.00012939		-0.00035938		-0.00013022	
O		2.82608827		4.99667204		0.95189986		 0.00035938		-0.00012939		-0.00013022	
O		4.28551209		2.11492831		0.95189986		-0.00035938		 0.00012939		-0.00013022	
O		2.21387204		3.04871165		4.05810018		-0.00009135		-0.00015955		-0.00025789	
O		4.89772832		4.06288793		4.05810018		 0.00009135		 0.00015955		-0.00025789	
