# total energy = -14249.963721 eV	

CRYSTAL	
PRIMVEC	
		7.72999998		0.30919969		0.00000000	
		0.30919969		7.72999998		0.00000000	
		0.00000000		0.00000000		5.00999736	
PRIMCOORD
   24 1	
Ca		2.60346402		1.41613582		2.55509973		-0.00046434		 0.00046434		-0.00035798	
Ca		5.43573565		6.62306385		2.55509973		 0.00046434		-0.00046434		-0.00035798	
Ca		1.52126356		5.23166370		2.45489994		-0.00006537		-0.00006537		 0.00068452	
Ca		6.51793534		2.80753597		2.45489994		 0.00006537		 0.00006537		 0.00068452	
Si		1.19351173		2.82608810		4.75949981		-0.00027292		 0.00027292		 0.00057485	
Si		6.84568794		5.21311157		4.75949981		 0.00027292		-0.00027292		 0.00057485	
Si		3.04871219		6.75911156		0.25049987		-0.00001050		-0.00001050		-0.00050494	
Si		4.99048748		1.28008811		0.25049987		 0.00001050		 0.00001050		-0.00050494	
Mg		0.00000000		0.00000000		0.00000000		0.00000000		0.00000000		 0.00049376	
Mg		4.01959984		4.01959984		0.00000000		0.00000000		0.00000000		 0.00049376	
O		3.86499999		0.15459984		0.95189996		0.00000000		0.00000000		 0.00061719	
O		0.15459984		3.86499999		4.05809971		0.00000000		0.00000000		-0.00088361	
O		1.19351173		2.82608810		1.30259962		 0.00025285		-0.00025285		 0.00057397	
O		6.84568794		5.21311157		1.30259962		-0.00025285		 0.00025285		 0.00057397	
O		3.04871219		6.75911156		3.70740005		-0.00004411		-0.00004411		-0.00042049	
O		4.99048748		1.28008811		3.70740005		 0.00004411		 0.00004411		-0.00042049	
O		0.67405579		1.41613582		4.05809971		 0.00077295		 0.00026013		-0.00048020	
O		7.36514388		6.62306385		4.05809971		-0.00077295		-0.00026013		-0.00048020	
O		1.67586418		7.16725546		0.95189996		 0.00025015		 0.00059341		 0.00002497	
O		6.36333550		0.87194421		0.95189996		-0.00025015		-0.00059341		 0.00002497	
O		3.45685609		5.38626355		0.95189996		 0.00059341		 0.00025015		 0.00002497	
O		4.58234358		2.65293612		0.95189996		-0.00059341		-0.00025015		 0.00002497	
O		2.60346402		3.34554405		4.05809971		-0.00026013		-0.00077295		-0.00048020	
O		5.43573565		4.69365562		4.05809971		 0.00026013		 0.00077295		-0.00048020	
