# total energy = -14245.1132883 eV	

CRYSTAL	
PRIMVEC	
		7.73000250		1.23680384		0.00000000	
		1.23680384		7.73000250		0.00000000	
		0.00000000		0.00000000		5.00999849	
PRIMCOORD
   24 1	
Ca		2.76115591		1.72224413		2.55509970		 0.00048485		-0.00048485		-0.00038885	
Ca		6.20564338		7.24455595		2.55509970		-0.00048485		 0.00048485		-0.00038885	
Ca		2.14275556		5.38935567		2.45489957		-0.00003001		-0.00003001		 0.00037704	
Ca		6.82404374		3.57744363		2.45489957		 0.00003001		 0.00003001		 0.00037704	
Si		1.52744817		2.95595187		4.75950013		 0.00030016		-0.00030016		-0.00014700	
Si		7.43935191		6.01084743		4.75950013		-0.00030016		 0.00030016		-0.00014700	
Si		3.84644813		7.09304746		0.25049992		 0.00025858		 0.00025858		-0.00023722	
Si		5.12035195		1.87375184		0.25049992		-0.00025858		-0.00025858		-0.00023722	
Mg		0.00000000		0.00000000		0.00000000		0.00000000		0.00000000		-0.00034779	
Mg		4.48340004		4.48340004		0.00000000		0.00000000		0.00000000		-0.00034779	
O		3.86499968		0.61840036		0.95190003		0.00000000		0.00000000		-0.00021240	
O		0.61840036		3.86499968		4.05810003		0.00000000		0.00000000		 0.00087722	
O		1.52744817		2.95595187		1.30260008		-0.00020914		 0.00020914		-0.00015680	
O		7.43935191		6.01084743		1.30260008		 0.00020914		-0.00020914		-0.00015680	
O		3.84644813		7.09304746		3.70739998		 0.00010184		 0.00010184		 0.00029806	
O		5.12035195		1.87375184		3.70739998		-0.00010184		-0.00010184		 0.00029806	
O		0.84102364		1.49034429		4.05810003		-0.00040492		-0.00054215		-0.00009288	
O		8.12577566		7.47645579		4.05810003		 0.00040492		 0.00054215		-0.00009288	
O		2.52925607		7.33422386		0.95190003		 0.00016072		-0.00006878		 0.00022796	
O		6.43754401		1.63257622		0.95190003		-0.00016072		 0.00006878		 0.00022796	
O		4.08762375		5.77585540		0.95190003		-0.00006878		 0.00016072		 0.00022796	
O		4.87917555		3.19094390		0.95190003		 0.00006878		-0.00016072		 0.00022796	
O		2.99305575		3.64237562		4.05810003		 0.00054215		 0.00040492		-0.00009288	
O		5.97374354		5.32442368		4.05810003		-0.00054215		-0.00040492		-0.00009288	
