# total energy = -13384.6040021 eV

CRYSTAL
PRIMVEC
		3.07220644		0.00000000		0.00000000
		-1.53610169		2.66060708		0.00000000
		0.00000000		0.00000000		19.65295791
PRIMECORD
   18 1
O		0.00000000		0.00000000		6.07434408		 0.00000010		 0.00000004		-0.00004737
O		0.00000000		0.00000000		13.57861505		 0.00000010		 0.00000007		 0.00004924
O		1.53610322		0.88686811		8.36259171		-0.00000004		 0.00000004		 0.00023374
O		0.00000000		1.77373805		11.29043123		-0.00000008		-0.00000005		-0.00047546
O		1.53610322		0.88686872		1.33926287		-0.00000004		 0.00000006		 0.00040272
O		0.00000000		1.77373897		18.31364558		 0.00000007		-0.00000014		-0.00021584
O		0.00000000		1.77373897		3.63344737		 0.00000008		-0.00000009		-0.00083894
O		1.53610383		0.88686719		16.01951238		-0.00000010		 0.00000020		 0.00083917
H		1.53610352		0.88686842		9.32458651		-0.00000003		 0.00000002		 0.00031026
H		0.00000000		1.77373866		10.32831614		 0.00000002		-0.00000004		-0.00009182
H		1.53610261		0.88686842		0.37485497		 0.00000002		 0.00000004		 0.00058294
H		0.00000000		1.77373866		19.27814629		-0.00000002		-0.00000005		-0.00074975
Mg		0.00000000		1.77373775		7.30167909		-0.00000002		 0.00000001		-0.00054711
Mg		1.53610322		0.88686842		12.35127516		 0.00000002		-0.00000001		 0.00056961
Mg		0.00000000		0.00000000		2.40358936		-0.00000002		 0.00000001		-0.00018596
Mg		0.00000000		0.00000000		17.24937466		-0.00000003		-0.00000000		 0.00016578
Mg		1.53610291		0.88686933		4.85408501		-0.00000007		-0.00000005		-0.00051794
Mg		0.00000000		1.77373714		14.79887504		 0.00000003		-0.00000004		 0.00051672
