# total energy = -20638.9111154 eV	

CRYSTAL	
PRIMVEC	
		4.78364033		0.00000000		0.00000000	
		0.00000000		10.25768125		0.00000000	
		0.00000000		0.00000000		6.01387941	
PRIMCOORD
   28 1	
Si		2.03735568		0.96262402		1.50347009		-0.00056873		-0.00003498		0.00000000	
Si		2.74628465		9.29505533		4.51041027		 0.00056873		 0.00003498		-0.00000000	
Si		4.42917774		4.16621565		4.51041027		-0.00056873		 0.00003498		-0.00000000	
Si		0.35446401		6.09146369		1.50347009		 0.00056873		-0.00003498		0.00000000	
Mg		0.00000000		0.00000000		0.00000000		0.00000000		-0.00000000		0.00000000	
Mg		2.39182064		5.12883967		0.00000000		0.00000000		0.00000000		0.00000000	
Mg		0.00000000		0.00000000		3.00694018		0.00000000		0.00000000		0.00000000	
Mg		2.39182064		5.12883967		3.00694018		0.00000000		-0.00000000		0.00000000	
Mg		4.74426561		2.83678090		1.50347009		 0.00018471		-0.00004168		-0.00000000	
Mg		0.03937566		7.42089892		4.51041027		-0.00018471		 0.00004168		-0.00000000	
Mg		2.35244498		2.29205877		4.51041027		 0.00018471		 0.00004168		0.00000000	
Mg		2.43119535		7.96562057		1.50347009		-0.00018471		-0.00004168		-0.00000000	
O		3.66482450		0.94191200		1.50347009		 0.00011657		-0.00035251		-0.00000000	
O		1.11881582		9.31576734		4.51041027		-0.00011657		 0.00035251		-0.00000000	
O		1.27300481		4.18692767		4.51041027		 0.00011657		 0.00035251		0.00000000	
O		3.51063646		6.07075168		1.50347009		-0.00011657		-0.00035251		0.00000000	
O		1.06244663		4.57998710		1.50347009		 0.00047979		-0.00050276		0.00000000	
O		3.72119464		5.67769224		4.51041027		-0.00047979		 0.00050276		0.00000000	
O		3.45426727		0.54885257		4.51041027		 0.00047979		 0.00050276		0.00000000	
O		1.32937400		9.70882725		1.50347009		-0.00047979		-0.00050276		0.00000000	
O		1.32391326		1.67416519		0.19557648		-0.00045719		 0.00014866		-0.00042321	
O		3.45972802		8.58351415		5.81830388		 0.00045719		-0.00014866		 0.00042321	
O		3.71573389		3.45467448		5.81830388		-0.00045719		-0.00014866		 0.00042321	
O		1.06790738		6.80300487		0.19557648		 0.00045719		 0.00014866		-0.00042321	
O		3.45972802		8.58351415		3.20251619		 0.00045719		-0.00014866		-0.00042321	
O		1.32391326		1.67416519		2.81136370		-0.00045719		 0.00014866		 0.00042321	
O		1.06790738		6.80300487		2.81136370		 0.00045719		 0.00014866		 0.00042321	
O		3.71573389		3.45467448		3.20251619		-0.00045719		-0.00014866		-0.00042321	
