# total energy = -49446.7948376 eV

CRYSTAL
PRIMVEC
		5.08940004		0.00000000		-0.20357580
		0.00000000		13.96800029		0.00000000
		-0.34782286		0.00000000		8.69560207
PRIMECORD
   70 1
Si		2.54470002		0.00000000		-0.10178790		0.00000000		0.00000000		0.00000000
Si		-0.17391194		6.98399964		4.34780002		0.00000000		0.00000000		0.00000000
Si		2.47349892		5.25923160		-0.09894014		-0.00005477		-0.00012468		 0.00004516
Si		2.61590112		8.70876767		-0.10463617		 0.00005477		 0.00012468		-0.00004516
Si		-0.10271084		12.24323175		4.34495175		 0.00005477		-0.00012468		-0.00004516
Si		4.84428700		1.72476905		4.14707198		-0.00005477		 0.00012468		 0.00004516
Mg		0.86219505		2.42358801		-0.03448788		-0.00023120		 0.00006503		 0.00059436
Mg		4.22720499		11.54441178		-0.16908791		 0.00023120		-0.00006503		-0.00059436
Mg		1.50859303		9.40758764		4.28050000		 0.00023120		 0.00006503		-0.00059436
Mg		3.23298313		4.56041163		4.21152373		-0.00023120		-0.00006503		 0.00059436
Mg		0.69307708		4.51808999		2.78340701		 0.00008032		-0.00001002		-0.00020650
Mg		4.04849806		9.44991081		5.70861672		-0.00008032		 0.00001002		 0.00020650
Mg		4.17107190		9.44991081		2.64428703		 0.00045616		-0.00005745		-0.00055427
Mg		0.57050375		4.51808999		5.84773670		-0.00045616		 0.00005745		 0.00055427
Mg		1.67770998		11.50208861		1.46260511		-0.00008032		-0.00001002		 0.00020650
Mg		3.06386466		2.46591067		7.02941862		 0.00008032		 0.00001002		-0.00020650
Mg		3.28911571		2.46591067		1.39814878		-0.00045616		-0.00005745		 0.00055427
Mg		1.45245994		11.50208861		7.09387495		 0.00045616		 0.00005745		-0.00055427
Mg		2.43295490		6.98399964		2.69184680		 0.00004835		 0.00041985		 0.00005699
Mg		2.30862076		6.98399964		5.80017591		-0.00004835		-0.00041985		-0.00005699
Mg		-0.06216682		0.00000000		1.55416481		-0.00004835		 0.00041985		-0.00005699
Mg		-0.28565706		0.00000000		7.14143471		 0.00004835		-0.00041985		 0.00005699
Mg		2.42578176		0.00000000		2.87115068		 0.00010691		 0.00021094		 0.00012584
Mg		2.31579287		0.00000000		5.62087305		-0.00010691		-0.00021094		-0.00012584
Mg		-0.05499419		6.98399964		1.37486093		-0.00010691		 0.00021094		-0.00012584
Mg		-0.29283020		6.98399964		7.32073758		 0.00010691		-0.00021094		 0.00012584
O		1.63644676		5.77129798		1.28992681		 0.00042373		 0.00010308		 0.00014116
O		3.10512889		8.19670181		7.20209692		-0.00042373		-0.00010308		-0.00014116
O		3.34434777		8.19670181		1.22161116		-0.00019859		 0.00002630		-0.00010717
O		1.39722788		5.77129798		7.27041257		 0.00019859		-0.00002630		 0.00010717
O		0.73434081		12.75529863		2.95608480		-0.00042373		 0.00010308		-0.00014116
O		4.00723484		1.21270217		5.53593893		 0.00042373		-0.00010308		 0.00014116
O		4.11583984		1.21270217		2.82082465		 0.00019859		 0.00002630		 0.00010717
O		0.62573581		12.75529863		5.67119856		-0.00019859		-0.00002630		-0.00010717
O		2.50953216		3.62092471		-0.10038108		-0.00013969		-0.00003884		 0.00050689
O		2.57986686		10.34707457		-0.10319522		 0.00013969		 0.00003884		-0.00050689
O		-0.13874408		10.60492485		4.34639269		 0.00013969		-0.00003884		-0.00050689
O		4.88031973		3.36307595		4.14563002		-0.00013969		 0.00003884		 0.00050689
O		4.02780176		5.78973583		-0.16111205		-0.00023548		-0.00031093		 0.00040481
O		1.06159777		8.17826396		-0.04246375		 0.00023548		 0.00031093		-0.00040481
O		3.43238585		12.77373547		4.20354786		 0.00023548		-0.00031093		-0.00040481
O		1.30918980		1.19426381		4.28847587		-0.00023548		 0.00031093		 0.00040481
O		1.76355277		1.02064220		1.18517706		-0.00002799		-0.00059129		-0.00037472
O		2.97802288		12.94735861		7.30684667		 0.00002799		 0.00059129		 0.00037472
O		3.22522781		12.94735861		1.12671014		 0.00016974		 0.00030579		-0.00014569
O		1.51634682		1.02064220		7.36531359		-0.00016974		-0.00030579		 0.00014569
O		0.60723480		8.00464183		3.06083506		 0.00002799		-0.00059129		 0.00037472
O		4.13434085		5.96335897		5.43118867		-0.00002799		 0.00059129		-0.00037472
O		4.23495878		5.96335897		2.91572567		-0.00016974		 0.00030579		 0.00014569
O		0.50661687		8.00464183		5.57629806		 0.00016974		-0.00030579		-0.00014569
O		4.94521563		3.51784103		1.18431575		-0.00018828		-0.00054606		 0.00009328
O		-0.20363998		10.45015876		7.30770798		 0.00018828		 0.00054606		-0.00009328
O		0.03343608		10.45015876		1.38078718		-0.00022097		 0.00026394		 0.00015689
O		4.70814008		3.51784103		7.11123553		 0.00022097		-0.00026394		-0.00015689
O		2.51497097		10.50184067		2.85812006		 0.00018828		-0.00054606		-0.00009328
O		2.22660418		3.46615912		5.63390367		-0.00018828		 0.00054606		 0.00009328
O		2.33735098		3.46615912		2.86522494		 0.00022097		 0.00026394		-0.00015689
O		2.40422416		10.50184067		5.62679879		-0.00022097		-0.00026394		 0.00015689
O		0.99589405		12.86159476		-0.03983603		 0.00017944		 0.00038521		-0.00014132
O		4.09350600		1.10640502		-0.16373977		-0.00017944		-0.00038521		 0.00014132
O		1.37489403		5.87759462		4.28584764		-0.00017944		 0.00038521		 0.00014132
O		3.36668213		8.09040466		4.20617609		 0.00017944		-0.00038521		-0.00014132
H		4.66028591		4.22671704		0.75555206		-0.00091684		 0.00021703		-0.00031362
H		0.08129025		9.74128275		7.73647167		 0.00091684		-0.00021703		 0.00031362
H		0.35363604		9.74128275		0.92781779		 0.00018438		 0.00016455		-0.00043600
H		4.38793962		4.22671704		7.56420594		-0.00018438		-0.00016455		 0.00043600
H		2.79990170		11.21071667		3.28688376		 0.00091684		 0.00021703		 0.00031362
H		1.94167395		2.75728311		5.20513895		-0.00091684		-0.00021703		-0.00031362
H		2.01715204		2.75728311		3.31819382		-0.00018438		 0.00016455		 0.00043600
H		2.72442412		11.21071667		5.17382889		 0.00018438		-0.00016455		-0.00043600
