# total energy = -49431.1659404 eV

CRYSTAL
PRIMVEC
		5.08940173		0.00000000		-0.81430654
		0.00000000		13.96799796		0.00000000
		-1.39129621		0.00000000		8.69559876
PRIMECORD
   70 1
Si		2.54469983		0.00000000		-0.40715224		-0.00000000		0.00000000		-0.00000000
Si		-0.69564811		6.98400001		4.34779989		0.00000000		0.00000000		0.00000000
Si		2.47349910		5.25923194		-0.39576006		 0.00022921		 0.00031538		 0.00022100
Si		2.61590108		8.70876757		-0.41854391		-0.00022921		-0.00031538		-0.00022100
Si		-0.62444686		12.24323144		4.33640772		-0.00022921		 0.00031538		-0.00022100
Si		4.32255083		1.72476910		3.54488811		 0.00022921		-0.00031538		 0.00022100
Mg		0.86219514		2.42358803		-0.13795087		 0.00029138		 0.00036379		 0.00013335
Mg		4.22720505		11.54441148		-0.67635310		-0.00029138		-0.00036379		-0.00013335
Mg		0.98685711		9.40758753		4.07859904		-0.00029138		 0.00036379		-0.00013335
Mg		2.71124686		4.56041198		3.80269678		 0.00029138		-0.00036379		 0.00013335
Mg		0.35520116		4.51808985		2.68672299		-0.00051164		-0.00018270		 0.00044838
Mg		3.34290281		9.44991069		5.19457284		 0.00051164		 0.00018270		-0.00044838
Mg		3.83319481		9.44991069		2.13024419		 0.00049820		-0.00008194		-0.00014063
Mg		-0.13509084		4.51808985		5.75105163		-0.00049820		 0.00008194		 0.00014063
Mg		1.49385108		11.50208884		1.25392518		 0.00051164		-0.00018270		-0.00044838
Mg		2.20425289		2.46591067		6.62736961		-0.00051164		 0.00018270		 0.00044838
Mg		3.10525607		2.46591067		0.99610001		-0.00049820		-0.00008194		 0.00014063
Mg		0.59284790		11.50208884		6.88519478		 0.00049820		 0.00008194		-0.00014063
Mg		2.09771800		6.98400001		2.38648291		-0.00031266		-0.00055774		 0.00082275
Mg		1.60038597		6.98400001		5.49481188		 0.00031266		 0.00055774		-0.00082275
Mg		-0.24866576		0.00000000		1.55416474		 0.00031266		-0.00055774		-0.00082275
Mg		-1.14262994		0.00000000		7.14143454		-0.00031266		 0.00055774		 0.00082275
Mg		2.06903010		0.00000000		2.56578694		 0.00000386		 0.00053348		 0.00026617
Mg		1.62907387		0.00000000		5.31550888		-0.00000386		-0.00053348		-0.00026617
Mg		-0.21997786		6.98400001		1.37486072		-0.00000386		 0.00053348		-0.00026617
Mg		-1.17131784		6.98400001		7.32073753		 0.00000386		-0.00053348		 0.00026617
O		1.47354019		5.77129758		1.08703695		-0.00004584		 0.00008540		 0.00019215
O		2.22456275		8.19670193		6.79425784		 0.00004584		-0.00008540		-0.00019215
O		3.18144085		8.19670193		0.81377309		 0.00023870		-0.00008987		-0.00009571
O		0.51666313		5.77129758		7.06752273		-0.00023870		 0.00008987		 0.00009571
O		0.37551205		12.75529863		2.85361070		 0.00004584		 0.00008540		-0.00019215
O		3.32259192		1.21270192		5.02768460		-0.00004584		-0.00008540		 0.00019215
O		3.75701107		1.21270192		2.31257111		-0.00023870		-0.00008987		 0.00009571
O		-0.05890710		12.75529863		5.56872471		 0.00023870		 0.00008987		-0.00009571
O		2.50953216		3.62092496		-0.40152496		-0.00074569		 0.00035639		-0.00093025
O		2.57986700		10.34707455		-0.41277901		 0.00074569		-0.00035639		 0.00093025
O		-0.66047991		10.60492446		4.34217261		 0.00074569		 0.00035639		 0.00093025
O		4.35858389		3.36307608		3.53912269		-0.00074569		-0.00035639		-0.00093025
O		4.02780197		5.78973598		-0.64444799		 0.00025217		 0.00008199		-0.00062524
O		1.06159821		8.17826353		-0.16985598		-0.00025217		-0.00008199		 0.00062524
O		2.91064994		12.77373547		3.77079167		-0.00025217		 0.00008199		 0.00062524
O		0.78745403		1.19426404		4.11050312		 0.00025217		-0.00008199		-0.00062524
O		1.61262497		1.02064193		0.96751416		-0.00021944		-0.00009501		-0.00012832
O		2.08547900		12.94735861		6.91378166		 0.00021944		 0.00009501		 0.00012832
O		3.07430086		12.94735861		0.73364489		-0.00004867		 0.00043890		-0.00014782
O		0.62380311		1.02064193		7.14764990		 0.00004867		-0.00043890		 0.00014782
O		0.23642676		8.00464194		2.97313400		 0.00021944		-0.00009501		 0.00012832
O		3.46167670		5.96335860		4.90816079		-0.00021944		 0.00009501		-0.00012832
O		3.86415105		5.96335860		2.39269777		 0.00004867		 0.00043890		 0.00014782
O		-0.16604708		8.00464194		5.48859702		-0.00004867		-0.00043890		-0.00014782
O		4.77909564		3.51784076		0.58424514		 0.00000967		-0.00064375		-0.00061136
O		-1.08099218		10.45015874		7.29704965		-0.00000967		 0.00064375		 0.00061136
O		-0.13268386		10.45015874		1.37012974		-0.00041908		-0.00003357		 0.00010850
O		3.83078783		3.51784076		6.51116557		 0.00041908		 0.00003357		-0.00010850
O		2.15935576		10.50184078		2.54209906		-0.00000967		-0.00064375		 0.00061136
O		1.53874770		3.46615873		5.33919676		 0.00000967		 0.00064375		-0.00061136
O		1.98173611		3.46615873		2.57051792		 0.00041908		-0.00003357		-0.00010850
O		1.71636786		10.50184078		5.31077791		-0.00041908		 0.00003357		 0.00010850
O		0.99589385		12.86159436		-0.15934310		 0.00039233		 0.00006425		-0.00018115
O		4.09350582		1.10640515		-0.65496087		-0.00039233		-0.00006425		 0.00018115
O		0.85315788		5.87759486		4.09999075		-0.00039233		 0.00006425		 0.00018115
O		2.84494609		8.09040465		3.78130507		 0.00039233		-0.00006425		-0.00018115
H		4.54706896		4.22671695		0.19178888		-0.00071493		 0.00066883		 0.00000548
H		-0.84896499		9.74128256		7.68950694		 0.00071493		-0.00066883		-0.00000548
H		0.24041915		9.74128256		0.88085310		 0.00071445		-0.00036184		 0.00044152
H		3.45768482		4.22671695		7.00044273		-0.00071445		 0.00036184		-0.00044152
H		2.39138192		11.21071645		2.93455481		 0.00071493		 0.00066883		-0.00000548
H		1.30672102		2.75728306		4.94673998		-0.00071493		-0.00066883		 0.00000548
H		1.60863310		2.75728306		3.05979507		-0.00071445		-0.00036184		-0.00044152
H		2.08947088		11.21071645		4.82149972		 0.00071445		 0.00036184		 0.00044152
