# total energy = -49437.921407 eV

CRYSTAL
PRIMVEC
		5.08940064		0.00000000		0.61072685
		0.00000000		13.96799885		0.00000000
		1.04347176		0.00000000		8.69559800
PRIMECORD
   70 1
Si		2.54469981		0.00000000		0.30536394		0.00000000		0.00000000		-0.00000000
Si		0.52173588		6.98399994		4.34780002		-0.00000000		0.00000000		0.00000000
Si		2.47349883		5.25923187		0.29682007		 0.00032290		-0.00018053		-0.00025992
Si		2.61590078		8.70876749		0.31390781		-0.00032290		 0.00018053		 0.00025992
Si		0.59293686		12.24323180		4.35634390		-0.00032290		-0.00018053		 0.00025992
Si		5.53993504		1.72476909		4.94998403		 0.00032290		 0.00018053		-0.00025992
Mg		0.86219489		2.42358782		0.10346296		 0.00025450		 0.00041668		-0.00031966
Mg		4.22720473		11.54441153		0.50726492		-0.00025450		-0.00041668		 0.00031966
Mg		2.20424080		9.40758776		4.54969998		-0.00025450		 0.00041668		 0.00031966
Mg		3.92863109		4.56041160		4.75662692		 0.00025450		-0.00041668		-0.00031966
Mg		1.14357878		4.51809001		2.91231898		-0.00022105		 0.00025137		-0.00090846
Mg		4.98929260		9.44991088		6.39400792		 0.00022105		-0.00025137		 0.00090846
Mg		4.62157296		9.44991088		3.32967898		-0.00006785		 0.00014719		 0.00065751
Mg		1.51129893		4.51809001		5.97664894		 0.00006785		-0.00014719		-0.00065751
Mg		1.92285691		11.50208841		1.74084396		 0.00022105		 0.00025137		 0.00090846
Mg		4.21001498		2.46591095		7.56548294		-0.00022105		-0.00025137		-0.00090846
Mg		3.53426286		2.46591095		1.93421286		 0.00006785		 0.00014719		-0.00065751
Mg		2.59860903		11.50208841		7.37211353		-0.00006785		-0.00014719		 0.00065751
Mg		2.87993603		6.98399994		3.09899907		 0.00072224		 0.00056628		-0.00024851
Mg		3.25293587		6.98399994		6.20732782		-0.00072224		-0.00056628		 0.00024851
Mg		0.18650018		0.00000000		1.55416489		-0.00072224		 0.00056628		 0.00024851
Mg		0.85697210		0.00000000		7.14143465		 0.00072224		-0.00056628		-0.00024851
Mg		2.90145307		0.00000000		3.27830298		 0.00075372		 0.00001370		-0.00065525
Mg		3.23141882		0.00000000		6.02802494		-0.00075372		-0.00001370		 0.00065525
Mg		0.16498313		6.98399994		1.37486098		-0.00075372		 0.00001370		 0.00065525
Mg		0.87848914		6.98399994		7.32073753		 0.00075372		-0.00001370		-0.00065525
O		1.85365606		5.77129771		1.56044669		 0.00021445		-0.00015641		 0.00006046
O		4.27921480		8.19670165		7.74588072		-0.00021445		 0.00015641		-0.00006046
O		3.56155681		8.19670165		1.76539503		-0.00014221		-0.00031146		-0.00011151
O		2.57131509		5.77129771		7.54093187		 0.00014221		 0.00031146		 0.00011151
O		1.21278014		12.75529867		3.09271676		-0.00021445		-0.00015641		-0.00006046
O		4.92009175		1.21270171		6.21361065		 0.00021445		 0.00015641		 0.00006046
O		4.59427902		1.21270171		3.49849681		 0.00014221		-0.00031146		 0.00011151
O		1.53859288		12.75529867		5.80783060		-0.00014221		 0.00031146		-0.00011151
O		2.50953195		3.62092513		0.30114377		-0.00074881		-0.00019217		 0.00023451
O		2.57986716		10.34707475		0.30958410		 0.00074881		 0.00019217		-0.00023451
O		0.55690374		10.60492455		4.35201968		 0.00074881		-0.00019217		-0.00023451
O		5.57596764		3.36307584		4.95430773		-0.00074881		 0.00019217		 0.00023451
O		4.02780161		5.78973562		0.48333613		 0.00031839		 0.00034419		 0.00015319
O		1.06159801		8.17826374		0.12739174		-0.00031839		-0.00034419		-0.00015319
O		4.12803370		12.77373555		4.78055468		-0.00031839		 0.00034419		-0.00015319
O		2.00483768		1.19426380		4.52577171		 0.00031839		-0.00034419		 0.00015319
O		1.96478995		1.02064197		1.47539499		 0.00059201		-0.00002762		 0.00032586
O		4.16808194		12.94735841		7.83093293		-0.00059201		 0.00002762		-0.00032586
O		3.42646492		12.94735841		1.65079603		 0.00012788		 0.00027303		-0.00036188
O		2.70640595		1.02064197		7.65553189		-0.00012788		-0.00027303		 0.00036188
O		1.10164574		8.00464191		3.17776897		-0.00059201		-0.00002762		-0.00032586
O		5.03122564		5.96335899		6.12855792		 0.00059201		 0.00002762		 0.00032586
O		4.72936988		5.96335899		3.61309581		-0.00012788		 0.00027303		 0.00036188
O		1.40350099		8.00464191		5.69323160		 0.00012788		-0.00027303		-0.00036188
O		5.16671068		3.51784097		1.98440989		 0.00049775		 0.00073704		 0.00049858
O		0.96616121		10.45015838		7.32191649		-0.00049775		-0.00073704		-0.00049858
O		0.25493111		10.45015838		1.39499710		-0.00054493		 0.00052652		 0.00033176
O		5.87794078		3.51784097		7.91133082		 0.00054493		-0.00052652		-0.00033176
O		2.98912514		10.50184040		3.27948092		-0.00049775		 0.00073704		-0.00049858
O		3.14374675		3.46615896		6.02684598		 0.00049775		-0.00073704		 0.00049858
O		2.81150509		3.46615896		3.25816686		 0.00054493		 0.00052652		-0.00033176
O		3.32136680		10.50184040		6.04816055		-0.00054493		-0.00052652		 0.00033176
O		0.99589406		12.86159472		0.11950706		-0.00028832		 0.00021512		 0.00040678
O		4.09350607		1.10640515		0.49122081		 0.00028832		-0.00021512		-0.00040678
O		2.07054214		5.87759478		4.53365690		 0.00028832		 0.00021512		-0.00040678
O		4.06232975		8.09040457		4.77267102		-0.00028832		-0.00021512		 0.00040678
H		4.81124198		4.22671674		1.50723613		 0.00025945		 0.00064644		-0.00055106
H		1.32162992		9.74128261		7.79909179		-0.00025945		-0.00064644		 0.00055106
H		0.50459175		9.74128261		0.99043804		-0.00015463		-0.00053954		 0.00028458
H		5.62827963		4.22671674		8.31588988		 0.00015463		 0.00053954		-0.00028458
H		3.34459384		11.21071668		3.75665570		-0.00025945		 0.00064644		 0.00055106
H		2.78827805		2.75728268		5.54967068		 0.00025945		-0.00064644		-0.00055106
H		2.56184394		2.75728268		3.66272592		 0.00015463		-0.00053954		-0.00028458
H		3.57102693		11.21071668		5.64360098		-0.00015463		 0.00053954		 0.00028458
