# total energy = -49443.2579849 eV

CRYSTAL
PRIMVEC
		5.08939832		0.00000000		0.40715084
		0.00000000		13.96799784		0.00000000
		0.69564615		0.00000000		8.69559735
PRIMECORD
   70 1
Si		2.54469967		0.00000000		0.20357593		0.00000000		0.00000000		-0.00000000
Si		0.34782410		6.98399943		4.34779970		0.00000000		0.00000000		0.00000000
Si		2.47349869		5.25923197		0.19788006		-0.00012793		 0.00006111		 0.00022031
Si		2.61590065		8.70876740		0.20927181		 0.00012793		-0.00006111		-0.00022031
Si		0.41902508		12.24323140		4.35349557		 0.00012793		 0.00006111		-0.00022031
Si		5.36602297		1.72476899		4.74925569		-0.00012793		-0.00006111		 0.00022031
Mg		0.86219482		2.42358780		0.06897593		-0.00010896		-0.00008704		 0.00021447
Mg		4.22720503		11.54441157		0.33817593		 0.00010896		 0.00008704		-0.00021447
Mg		2.03032895		9.40758775		4.48239970		 0.00010896		-0.00008704		-0.00021447
Mg		3.75471859		4.56041163		4.62035054		-0.00010896		 0.00008704		 0.00021447
Mg		1.03095373		4.51808979		2.88009098		-0.00010450		 0.00005125		 0.00020273
Mg		4.75409381		9.44991060		6.22265977		 0.00010450		-0.00005125		-0.00020273
Mg		4.50894760		9.44991060		3.15833106		 0.00008694		-0.00015533		 0.00041099
Mg		1.27609994		4.51808979		5.94442071		-0.00008694		 0.00015533		-0.00041099
Mg		1.86157004		11.50208820		1.67128414		 0.00010450		 0.00005125		-0.00020273
Mg		3.92347801		2.46591066		7.43146661		-0.00010450		-0.00005125		 0.00020273
Mg		3.47297603		2.46591066		1.80019695		-0.00008694		-0.00015533		-0.00041099
Mg		2.31207202		11.50208820		7.30255380		 0.00008694		 0.00015533		 0.00041099
Mg		2.76819074		6.98399943		2.99721073		 0.00009735		 0.00000595		 0.00015008
Mg		3.01685680		6.98399943		6.10553951		-0.00009735		-0.00000595		-0.00015008
Mg		0.12433303		0.00000000		1.55416490		-0.00009735		 0.00000595		-0.00015008
Mg		0.57131517		0.00000000		7.14143450		 0.00009735		-0.00000595		 0.00015008
Mg		2.78253509		0.00000000		3.17651487		-0.00014401		 0.00006074		 0.00000192
Mg		3.00251296		0.00000000		5.92623691		 0.00014401		-0.00006074		-0.00000192
Mg		0.10998919		6.98399943		1.37486076		 0.00014401		 0.00006074		-0.00000192
Mg		0.58565901		6.98399943		7.32073761		-0.00014401		-0.00006074		 0.00000192
O		1.79935400		5.77129749		1.49281682		-0.00017458		 0.00032649		 0.00009932
O		3.98569405		8.19670138		7.60993444		 0.00017458		-0.00032649		-0.00009932
O		3.50725492		8.19670138		1.62944888		 0.00008465		 0.00028829		-0.00004991
O		2.27779313		5.77129749		7.47330188		-0.00008465		-0.00028829		 0.00004991
O		1.09316977		12.75529845		3.05855881		 0.00017458		 0.00032649		-0.00009932
O		4.69187777		1.21270194		6.04419245		-0.00017458		-0.00032649		 0.00009932
O		4.47466871		1.21270194		3.32907862		-0.00008465		 0.00028829		 0.00004991
O		1.31037883		12.75529845		5.77367264		 0.00008465		-0.00028829		-0.00004991
O		2.50953189		3.62092478		0.20076322		 0.00004245		 0.00006137		-0.00043046
O		2.57986695		10.34707460		0.20638915		-0.00004245		-0.00006137		 0.00043046
O		0.38299188		10.60492472		4.35061292		-0.00004245		 0.00006137		 0.00043046
O		5.40205566		3.36307568		4.75213783		 0.00004245		-0.00006137		-0.00043046
O		4.02780196		5.78973556		0.32222381		-0.00009811		-0.00018044		-0.00042520
O		1.06159790		8.17826382		0.08492806		 0.00009811		 0.00018044		 0.00042520
O		3.95412167		12.77373550		4.63630369		 0.00009811		-0.00018044		 0.00042520
O		1.83092587		1.19426387		4.46644757		-0.00009811		 0.00018044		-0.00042520
O		1.91448102		1.02064183		1.40283978		 0.00000452		-0.00019226		-0.00011329
O		3.87056703		12.94735857		7.69991046		-0.00000452		 0.00019226		 0.00011329
O		3.37615587		12.94735857		1.51977471		 0.00016686		-0.00010532		-0.00012782
O		2.40889167		1.02064183		7.58297655		-0.00016686		 0.00010532		 0.00012782
O		0.97804275		8.00464177		3.14853483		-0.00000452		-0.00019226		 0.00011329
O		4.80700479		5.96335863		5.95421592		 0.00000452		 0.00019226		-0.00011329
O		4.60576776		5.96335863		3.43875279		-0.00016686		-0.00010532		 0.00012782
O		1.17927978		8.00464177		5.66399796		 0.00016686		 0.00010532		-0.00012782
O		5.11133683		3.51784099		1.78438676		-0.00005617		-0.00009936		-0.00003115
O		0.67371122		10.45015838		7.31836450		 0.00005617		 0.00009936		 0.00003115
O		0.19955676		10.45015838		1.39144395		 0.00012913		-0.00005277		 0.00008002
O		5.58549078		3.51784099		7.71130680		-0.00012913		 0.00005277		-0.00008002
O		2.87058679		10.50184042		3.17414074		 0.00005617		-0.00009936		 0.00003115
O		2.91446075		3.46615895		5.92861053		-0.00005617		 0.00009936		-0.00003115
O		2.69296701		3.46615895		3.15993066		-0.00012913		-0.00005277		-0.00008002
O		3.09208104		10.50184042		5.94281958		 0.00012913		 0.00005277		 0.00008002
O		0.99589418		12.86159421		0.07967178		-0.00036504		 0.00018012		 0.00000488
O		4.09350567		1.10640517		0.32748009		 0.00036504		-0.00018012		-0.00000488
O		1.89663010		5.87759477		4.47170385		 0.00036504		 0.00018012		-0.00000488
O		3.88841795		8.09040460		4.63104690		-0.00036504		-0.00018012		 0.00000488
H		4.77350298		4.22671693		1.31931476		 0.00084876		 0.00006047		-0.00001499
H		1.01154507		9.74128244		7.78343650		-0.00084876		-0.00006047		 0.00001499
H		0.46685286		9.74128244		0.97478279		-0.00000736		 0.00009871		 0.00012084
H		5.31819468		4.22671693		8.12796847		 0.00000736		-0.00009871		-0.00012084
H		3.20842065		11.21071636		3.63921274		-0.00084876		 0.00006047		 0.00001499
H		2.57662689		2.75728301		5.46353750		 0.00084876		-0.00006047		-0.00001499
H		2.42567091		2.75728301		3.57659284		 0.00000736		 0.00009871		-0.00012084
H		3.35937663		11.21071636		5.52615791		-0.00000736		-0.00009871		 0.00012084
