# total energy = -49431.1659404 eV

CRYSTAL
PRIMVEC
		5.08940173		0.00000000		0.81430654
		0.00000000		13.96799796		0.00000000
		1.39129621		0.00000000		8.69559876
PRIMECORD
   70 1
Si		2.54469983		0.00000000		0.40715224		0.00000000		0.00000000		0.00000000
Si		0.69564811		6.98400001		4.34779989		0.00000000		0.00000000		0.00000000
Si		2.47349910		5.25923194		0.39576006		 0.00022920		 0.00031536		-0.00022103
Si		2.61590108		8.70876757		0.41854391		-0.00022920		-0.00031536		 0.00022103
Si		0.76684884		12.24323144		4.35919207		-0.00022920		 0.00031536		 0.00022103
Si		5.71384704		1.72476910		5.15071168		 0.00022920		-0.00031536		-0.00022103
Mg		0.86219514		2.42358803		0.13795087		 0.00029138		 0.00036381		-0.00013338
Mg		4.22720505		11.54441148		0.67635310		-0.00029138		-0.00036381		 0.00013338
Mg		2.37815281		9.40758753		4.61700075		-0.00029138		 0.00036381		 0.00013338
Mg		4.10254308		4.56041198		4.89290301		 0.00029138		-0.00036381		-0.00013338
Mg		1.25620382		4.51808985		2.94454816		-0.00049820		 0.00008193		-0.00014062
Mg		5.22449103		9.44991069		6.56535560		 0.00049820		-0.00008193		 0.00014062
Mg		4.73419902		9.44991069		3.50102695		 0.00051162		 0.00018276		 0.00044838
Mg		1.74649686		4.51808985		6.00887680		-0.00051162		-0.00018276		-0.00044838
Mg		1.98414309		11.50208884		1.81040398		 0.00049820		 0.00008193		 0.00014062
Mg		4.49655177		2.46591067		7.69949875		-0.00049820		-0.00008193		-0.00014062
Mg		3.59554910		2.46591067		2.06822915		-0.00051162		 0.00018276		-0.00044838
Mg		2.88514678		11.50208884		7.44167358		 0.00051162		-0.00018276		 0.00044838
Mg		2.99168167		6.98400001		3.20078688		 0.00031263		 0.00055777		 0.00082269
Mg		3.48901370		6.98400001		6.30911584		-0.00031263		-0.00055777		-0.00082269
Mg		0.24866576		0.00000000		1.55416474		-0.00031263		 0.00055777		-0.00082269
Mg		1.14262994		0.00000000		7.14143454		 0.00031263		-0.00055777		 0.00082269
Mg		3.02037008		0.00000000		3.38009090		-0.00000387		-0.00053353		 0.00026617
Mg		3.46032580		0.00000000		6.12981285		 0.00000387		 0.00053353		-0.00026617
Mg		0.21997786		6.98400001		1.37486072		 0.00000387		-0.00053353		-0.00026617
Mg		1.17131784		6.98400001		7.32073753		-0.00000387		 0.00053353		 0.00026617
O		1.90795882		5.77129758		1.62807706		-0.00023873		 0.00008987		-0.00009573
O		4.57273706		8.19670193		7.88182670		 0.00023873		-0.00008987		 0.00009573
O		3.61585896		8.19670193		1.90134092		 0.00004584		-0.00008540		 0.00019215
O		2.86483589		5.77129758		7.60856181		-0.00004584		 0.00008540		-0.00019215
O		1.33238912		12.75529863		3.12687508		 0.00023873		 0.00008987		 0.00009573
O		5.14830677		1.21270192		6.38302868		-0.00023873		-0.00008987		-0.00009573
O		4.71388762		1.21270192		3.66791467		-0.00004584		-0.00008540		-0.00019215
O		1.76680672		12.75529863		5.84198857		 0.00004584		 0.00008540		 0.00019215
O		2.50953216		3.62092496		0.40152496		-0.00074570		 0.00035641		 0.00093026
O		2.57986700		10.34707455		0.41277901		 0.00074570		-0.00035641		-0.00093026
O		0.73081578		10.60492446		4.35342666		 0.00074570		 0.00035641		-0.00093026
O		5.74987958		3.36307608		5.15647658		-0.00074570		-0.00035641		 0.00093026
O		4.02780197		5.78973598		0.64444799		 0.00025217		 0.00008199		 0.00062524
O		1.06159821		8.17826353		0.16985598		-0.00025217		-0.00008199		-0.00062524
O		4.30194564		12.77373547		4.92480709		-0.00025217		 0.00008199		-0.00062524
O		2.17874973		1.19426404		4.58509564		 0.00025217		-0.00008199		 0.00062524
O		2.01509881		1.02064193		1.54794885		 0.00004865		-0.00043888		-0.00014785
O		4.46559708		12.94735861		7.96195387		-0.00004865		 0.00043888		 0.00014785
O		3.47677470		12.94735861		1.78181813		 0.00021944		 0.00009496		-0.00012839
O		3.00392067		1.02064193		7.72808563		-0.00021944		-0.00009496		 0.00012839
O		1.22524914		8.00464194		3.20700174		-0.00004865		-0.00043888		 0.00014785
O		5.25544675		5.96335860		6.30290099		 0.00004865		 0.00043888		-0.00014785
O		4.85297291		5.96335860		3.78743797		-0.00021944		 0.00009496		 0.00012839
O		1.62772297		8.00464194		5.72246475		 0.00021944		-0.00009496		-0.00012839
O		5.22208405		3.51784076		2.18443371		 0.00041911		 0.00003356		 0.00010853
O		1.25861183		10.45015874		7.32546954		-0.00041911		-0.00003356		-0.00010853
O		0.31030403		10.45015874		1.39854911		-0.00000961		 0.00064382		-0.00061135
O		6.17039185		3.51784076		8.11135362		 0.00000961		-0.00064382		 0.00061135
O		3.10766305		10.50184078		3.38482188		-0.00041911		 0.00003356		-0.00010853
O		3.37303180		3.46615873		6.12508187		 0.00041911		-0.00003356		 0.00010853
O		2.93004288		3.46615873		3.35640303		 0.00000961		 0.00064382		 0.00061135
O		3.55065197		10.50184078		6.15350073		-0.00000961		-0.00064382		-0.00061135
O		0.99589385		12.86159436		0.15934310		 0.00039232		 0.00006427		 0.00018110
O		4.09350582		1.10640515		0.65496087		-0.00039232		-0.00006427		-0.00018110
O		2.24445409		5.87759486		4.59560904		-0.00039232		 0.00006427		-0.00018110
O		4.23624179		8.09040465		4.91429472		 0.00039232		-0.00006427		 0.00018110
H		4.84898104		4.22671695		1.69515706		-0.00071446		 0.00036184		 0.00044153
H		1.63171485		9.74128256		7.81474669		 0.00071446		-0.00036184		-0.00044153
H		0.54233019		9.74128256		1.00609181		 0.00071493		-0.00066884		 0.00000545
H		5.93836466		4.22671695		8.50381091		-0.00071493		 0.00066884		-0.00000545
H		3.48076709		11.21071645		3.87409904		 0.00071446		 0.00036184		-0.00044153
H		2.99992879		2.75728306		5.63580369		-0.00071446		-0.00036184		 0.00044153
H		2.69801672		2.75728306		3.74885878		-0.00071493		-0.00066884		-0.00000545
H		3.78267813		11.21071645		5.76104395		 0.00071493		 0.00066884		 0.00000545
