# total energy = -49428.216424 eV	

CRYSTAL	
PRIMVEC	
		18.23299940		0.00000000		0.00000000	
		0.00000000		8.81910125		-0.70552591	
		0.00000000		-0.41441784		5.18019569	
PRIMCOORD
   80 1	
Mg		6.86107767		5.40956500		4.02612159		 0.00049177		 0.00094451		 0.00012182	
Mg		11.37192172		2.99511840		0.44855184		-0.00049177		-0.00094451		-0.00012182	
Mg		2.25542203		2.89872600		1.65346502		-0.00014214		-0.00022311		-0.00013609	
Mg		15.97757737		5.50595740		2.82120658		 0.00014214		 0.00022311		 0.00013609	
Mg		11.37192172		1.09640860		3.17397136		-0.00014214		 0.00022311		 0.00013609	
Mg		6.86107767		7.30827663		1.30070024		 0.00014214		-0.00022311		-0.00013609	
Mg		15.97757737		7.40466902		0.09578706		 0.00049177		-0.00094451		-0.00012182	
Mg		2.25542203		1.00001438		4.37888454		-0.00049177		 0.00094451		 0.00012182	
Mg		6.87201747		4.14793261		1.51544121		 0.00006928		-0.00003917		-0.00004371	
Mg		11.36098192		4.25675262		2.95923039		-0.00006928		 0.00003917		 0.00004371	
Mg		2.24448223		4.16649198		4.08747927		 0.00014993		-0.00025088		-0.00039468	
Mg		15.98851717		4.23819142		0.38719233		-0.00014993		 0.00025088		 0.00039468	
Mg		11.36098192		8.64774205		0.03442937		 0.00014993		 0.00025088		 0.00039468	
Mg		6.87201747		-0.24305682		4.44024223		-0.00014993		-0.00025088		-0.00039468	
Mg		15.98851717		-0.15279800		3.31199517		 0.00006928		 0.00003917		 0.00004371	
Mg		2.24448223		8.55748141		1.16267644		-0.00006928		-0.00003917		-0.00004371	
Si		4.95025934		2.99339903		0.02096977		 0.00026514		 0.00013287		-0.00006368	
Si		13.28274006		5.41128620		4.45370365		-0.00026514		-0.00013287		 0.00006368	
Si		4.16624036		5.57655557		2.38783918		 0.00016112		 0.00007733		 0.00030066	
Si		14.06675903		2.82812965		2.08683242		-0.00016112		-0.00007733		-0.00030066	
Si		13.28274006		7.23768028		1.73406764		 0.00016112		-0.00007733		-0.00030066	
Si		4.95025934		1.16700313		2.74060396		-0.00016112		 0.00007733		 0.00030066	
Si		14.06675903		1.00173557		4.80646661		 0.00026514		-0.00013287		 0.00006368	
Si		4.16624036		7.40294965		-0.33179501		-0.00026514		 0.00013287		-0.00006368	
Si		8.63514851		2.64481872		3.89627346		 0.00017538		-0.00023750		 0.00020857	
Si		9.59785088		5.75986650		0.57839997		-0.00017538		 0.00023750		-0.00020857	
Si		0.48135118		5.71999823		1.07673519		-0.00012271		-0.00040485		 0.00007326	
Si		17.75164821		2.68468518		3.39793641		 0.00012271		 0.00040485		-0.00007326	
Si		9.59785088		7.09423580		3.04517345		-0.00012271		 0.00040485		-0.00007326	
Si		8.63514851		1.31044760		1.42949815		 0.00012271		-0.00040485		 0.00007326	
Si		17.75164821		1.35031406		0.93116475		 0.00017538		 0.00023750		-0.00020857	
Si		0.48135118		7.05436935		3.54350868		-0.00017538		-0.00023750		 0.00020857	
O		3.34575539		2.99057656		-0.06424762		 0.00013268		-0.00056214		-0.00002384	
O		14.88724401		5.41410684		4.53891922		-0.00013268		 0.00056214		 0.00002384	
O		5.77074431		5.59313302		2.30107199		 0.00013786		 0.00046843		 0.00056916	
O		12.46225509		2.81155039		2.17359962		-0.00013786		-0.00046843		-0.00056916	
O		14.88724401		7.22109919		1.82083666		 0.00013786		-0.00046843		-0.00056916	
O		3.34575539		1.18358422		2.65383677		-0.00013786		 0.00046843		 0.00056916	
O		12.46225509		1.00455622		4.89168218		 0.00013268		 0.00056214		 0.00002384	
O		5.77074431		7.40012718		-0.41701058		-0.00013268		-0.00056214		-0.00002384	
O		5.67775601		4.41730512		-0.13206161		 0.00026750		 0.00028432		 0.00062377	
O		12.55524338		3.98737828		4.60673322		-0.00026750		-0.00028432		-0.00062377	
O		3.43874369		4.15894716		2.46213136		 0.00040152		-0.00035408		 0.00053463	
O		14.79425571		4.24573806		2.01254024		-0.00040152		 0.00035408		-0.00053463	
O		12.55524338		-0.16381256		2.36530502		 0.00040152		 0.00035408		-0.00053463	
O		5.67775601		8.56849596		2.10936658		-0.00040152		-0.00035408		 0.00053463	
O		14.79425571		8.39692891		4.25397026		 0.00026750		-0.00028432		-0.00062377	
O		3.43874369		0.00775632		0.22070316		-0.00026750		 0.00028432		 0.00062377	
O		5.51548232		1.61657419		4.15301597		-0.00008112		 0.00033028		 0.00018093	
O		12.71751708		6.78810921		0.32165564		 0.00008112		-0.00033028		-0.00018093	
O		3.60101738		6.72014570		1.17120766		 0.00015853		-0.00022655		-0.00002350	
O		14.63198202		1.68453770		3.30346395		-0.00015853		 0.00022655		 0.00002350	
O		12.71751708		6.09408832		2.95069917		 0.00015853		 0.00022655		 0.00002350	
O		5.51548232		2.31059508		1.52397244		-0.00015853		-0.00022655		-0.00002350	
O		14.63198202		2.37856041		0.67441859		-0.00008112		-0.00033028		-0.00018093	
O		3.60101738		6.02612299		3.80025301		 0.00008112		 0.00033028		 0.00018093	
O		10.25059226		2.68013604		3.89293135		 0.00010997		-0.00029936		-0.00019438	
O		7.98240714		5.72454736		0.58174026		-0.00010997		 0.00029936		 0.00019438	
O		17.09890683		5.68476295		1.07903984		-0.00019702		 0.00031858		 0.00041716	
O		1.13409256		2.71992045		3.39563358		 0.00019702		-0.00031858		-0.00041716	
O		7.98240714		7.12947107		3.04286880		-0.00019702		-0.00031858		-0.00041716	
O		10.25059226		1.27521233		1.43180280		 0.00019702		 0.00031858		 0.00041716	
O		1.13409256		1.31499674		0.93450321		 0.00010997		 0.00029936		 0.00019438	
O		17.09890683		7.08968667		3.54016839		-0.00010997		-0.00029936		-0.00019438	
O		7.88394894		3.97896923		3.23314474		-0.00038743		-0.00034286		-0.00012470	
O		10.34905046		4.42571418		1.24152686		 0.00038743		 0.00034286		 0.00012470	
O		1.23255076		4.47544468		0.61990375		 0.00048094		 0.00027058		-0.00015417	
O		17.00044864		3.92924054		3.85476968		-0.00048094		-0.00027058		 0.00015417	
O		10.34905046		8.33878934		3.50200490		 0.00048094		-0.00027058		 0.00015417	
O		7.88394894		0.06589406		0.97266670		-0.00048094		 0.00027058		-0.00015417	
O		17.00044864		0.01616355		1.59429164		-0.00038743		 0.00034286		 0.00012470	
O		1.23255076		8.38851985		2.88038178		 0.00038743		-0.00034286		-0.00012470	
O		8.17385363		1.47071384		2.98601102		 0.00032094		 0.00067138		-0.00017171	
O		10.05914577		6.93397138		1.48866059		-0.00032094		-0.00067138		 0.00017171	
O		0.94264607		7.05580793		-0.03431815		-0.00046500		-0.00040091		 0.00013247	
O		17.29035333		1.34887547		4.50899158		 0.00046500		 0.00040091		-0.00013247	
O		10.05914577		5.75842609		4.15622680		-0.00046500		 0.00040091		-0.00013247	
O		8.17385363		2.64625913		0.31844480		 0.00046500		-0.00040091		 0.00013247	
O		17.29035333		2.52442076		1.84142354		 0.00032094		-0.00067138		 0.00017171	
O		0.94264607		5.88026447		2.63324806		-0.00032094		 0.00067138		-0.00017171	
