# total energy = -18504.2439747 eV

CRYSTAL
PRIMVEC
		7.02599999		0.00000000		0.00000000
		0.00000000		5.91660161		0.00000000
		-0.43440353		0.00000000		4.23980456
PRIMECORD
   30 1
Mg		0.16677405		1.47915005		2.28101478		-0.00000033		0.00000000		-0.00005509
Mg		6.42482381		4.43745016		1.95878978		 0.00000033		0.00000000		 0.00005509
Mg		4.73063390		1.47915005		3.88790033		-0.00008789		0.00000000		 0.00028730
Mg		1.86096467		4.43745016		0.35190424		 0.00008789		0.00000000		-0.00028730
Mg		2.80620688		1.47915005		0.17807186		-0.00020130		-0.00000000		 0.00008949
Mg		3.78539099		4.43745016		4.06173200		 0.00020130		-0.00000000		-0.00008949
Si		0.00000000		0.00000000		0.00000000		0.00000000		0.00000000		-0.00000000
Si		0.00000000		2.95830010		0.00000000		0.00000000		0.00000000		0.00000000
Si		2.07748702		2.97013329		2.35309100		-0.00012771		-0.00037966		-0.00012833
Si		4.51411084		2.94646692		1.88671285		 0.00012771		 0.00037966		 0.00012833
Si		4.51411084		0.01183319		1.88671285		 0.00012771		-0.00037966		 0.00012833
Si		2.07748702		5.90476702		2.35309100		-0.00012771		 0.00037966		-0.00012833
O		5.50377634		3.31329578		0.59357334		 0.00005470		 0.00003950		 0.00013177
O		1.08782223		2.60330373		3.64623192		-0.00005470		-0.00003950		-0.00013177
O		1.08782223		0.35499568		3.64623192		-0.00005470		 0.00003950		-0.00013177
O		5.50377634		5.56160383		0.59357334		 0.00005470		-0.00003950		 0.00013177
O		5.86321666		2.60922102		2.77707216		-0.00015057		-0.00008328		 0.00003650
O		0.72838120		3.30737989		1.46273310		 0.00015057		 0.00008328		-0.00003650
O		0.72838120		5.56752113		1.46273310		 0.00015057		-0.00008328		-0.00003650
O		5.86321666		0.34907908		2.77707216		-0.00015057		 0.00008328		 0.00003650
O		1.96359767		1.47915005		1.81887612		 0.00010521		0.00000000		 0.00038282
O		4.62800090		4.43745016		2.42092774		-0.00010521		0.00000000		-0.00038282
O		3.11234796		3.28371281		1.03027226		-0.00012257		 0.00011518		-0.00008372
O		3.47924990		2.63288670		3.20953230		 0.00012257		-0.00011518		 0.00008372
O		3.47924990		0.32541270		3.20953230		 0.00012257		 0.00011518		 0.00008372
O		3.11234796		5.59118680		1.03027226		-0.00012257		-0.00011518		-0.00008372
O		4.38877614		1.47915005		1.32705893		-0.00029014		0.00000000		 0.00000240
O		2.20282173		4.43745016		2.91274633		 0.00029014		0.00000000		-0.00000240
O		6.82103681		1.47915005		0.49181719		 0.00028848		-0.00000000		-0.00012116
O		-0.22943895		4.43745016		3.74798667		-0.00028848		-0.00000000		 0.00012116
