# total energy = -18498.2539838 eV

CRYSTAL
PRIMVEC
		7.02599999		0.00000000		0.00000000
		0.00000000		5.76089843		0.00000000
		-0.43440353		0.00000000		4.23980456
PRIMECORD
   30 1
Mg		0.16677405		1.44022531		2.28101478		-0.00023517		0.00000000		-0.00024017
Mg		6.42482381		4.32067523		1.95878978		 0.00023517		0.00000000		 0.00024017
Mg		4.73063390		1.44022531		3.88790033		-0.00022801		-0.00000000		 0.00041918
Mg		1.86096467		4.32067523		0.35190424		 0.00022801		-0.00000000		-0.00041918
Mg		2.80620688		1.44022531		0.17807186		-0.00005196		0.00000000		 0.00034511
Mg		3.78539099		4.32067523		4.06173200		 0.00005196		0.00000000		-0.00034511
Si		0.00000000		0.00000000		0.00000000		0.00000000		0.00000000		0.00000000
Si		0.00000000		2.88044992		0.00000000		0.00000000		0.00000000		0.00000000
Si		2.07748702		2.89197185		2.35309100		 0.00032783		 0.00053951		 0.00007931
Si		4.51411084		2.86892798		1.88671285		-0.00032783		-0.00053951		-0.00007931
Si		4.51411084		0.01152194		1.88671285		-0.00032783		 0.00053951		-0.00007931
Si		2.07748702		5.74937790		2.35309100		 0.00032783		-0.00053951		 0.00007931
O		5.50377634		3.22610382		0.59357334		 0.00026901		 0.00012240		 0.00018580
O		1.08782223		2.53479601		3.64623192		-0.00026901		-0.00012240		-0.00018580
O		1.08782223		0.34565391		3.64623192		-0.00026901		 0.00012240		-0.00018580
O		5.50377634		5.41524593		0.59357334		 0.00026901		-0.00012240		 0.00018580
O		5.86321666		2.54055733		2.77707216		-0.00012337		-0.00004737		 0.00024198
O		0.72838120		3.22034321		1.46273310		 0.00012337		 0.00004737		-0.00024198
O		0.72838120		5.42100725		1.46273310		 0.00012337		-0.00004737		-0.00024198
O		5.86321666		0.33989329		2.77707216		-0.00012337		 0.00004737		 0.00024198
O		1.96359767		1.44022531		1.81887612		-0.00000484		-0.00000000		 0.00001889
O		4.62800090		4.32067523		2.42092774		 0.00000484		-0.00000000		-0.00001889
O		3.11234796		3.19730003		1.03027226		-0.00022631		 0.00021146		-0.00007549
O		3.47924990		2.56360121		3.20953230		 0.00022631		-0.00021146		 0.00007549
O		3.47924990		0.31685012		3.20953230		 0.00022631		 0.00021146		 0.00007549
O		3.11234796		5.44405112		1.03027226		-0.00022631		-0.00021146		-0.00007549
O		4.38877614		1.44022531		1.32705893		-0.00023071		0.00000000		 0.00037617
O		2.20282173		4.32067523		2.91274633		 0.00023071		0.00000000		-0.00037617
O		6.82103681		1.44022531		0.49181719		 0.00043385		0.00000000		-0.00003000
O		-0.22943895		4.32067523		3.74798667		-0.00043385		0.00000000		 0.00003000
