# total energy = -49446.2528861 eV

CRYSTAL
PRIMVEC
		5.28618147		0.00000509		0.00000000
		0.00001018		14.45910195		0.00000000
		0.00000000		0.00000000		9.01598884
PRIMECORD
   70 1
Si		2.64308972		0.00000000		0.00000000		-0.00000000		 0.00000002		 0.00000009
Si		0.00000000		7.22954996		4.50799391		-0.00000001		 0.00000003		 0.00000001
Si		2.56457707		5.44961889		0.00000000		 0.00005338		 0.00007064		-0.00000002
Si		2.72161203		9.00948459		0.00000000		-0.00005334		-0.00007061		-0.00000002
Si		0.07852079		12.67917292		4.50799391		-0.00004097		 0.00005270		-0.00000013
Si		5.20766831		1.77993107		4.50799391		 0.00004106		-0.00005272		-0.00000012
Mg		0.92210102		2.52904085		0.00000000		-0.00077378		 0.00009891		 0.00000006
Mg		4.36408808		11.93006314		0.00000000		 0.00077377		-0.00009889		 0.00000004
Mg		1.72099734		9.75859335		4.50799391		 0.00077354		 0.00009222		-0.00000001
Mg		3.56519176		4.70051064		4.50799391		-0.00077355		-0.00009224		-0.00000004
Mg		0.84047112		4.66934773		2.91230777		-0.00001272		 0.00000329		 0.00004276
Mg		4.44571798		9.78975625		6.10368005		 0.00001273		-0.00000334		-0.00004277
Mg		4.44571798		9.78975625		2.91230777		 0.00001273		-0.00000329		 0.00004276
Mg		0.84047112		4.66934723		6.10368005		-0.00001272		 0.00000334		-0.00004278
Mg		1.80263030		11.89890024		1.59568665		 0.00001117		-0.00000328		-0.00004484
Mg		3.48355880		2.56020375		7.42030117		-0.00001116		 0.00000329		 0.00004490
Mg		3.48355880		2.56020375		1.59568665		-0.00001117		 0.00000327		-0.00004482
Mg		1.80263030		11.89890024		7.42030117		 0.00001116		-0.00000332		 0.00004489
Mg		2.64309480		7.22955199		2.90253816		0.00000000		-0.00000000		 0.00003322
Mg		2.64309480		7.22955199		6.11344967		 0.00000001		 0.00000001		-0.00003322
Mg		0.00000000		0.00000000		1.60545626		-0.00000000		-0.00000002		-0.00003538
Mg		0.00000000		0.00000000		7.41053156		-0.00000001		-0.00000002		 0.00003540
Mg		2.64308972		0.00000000		3.07579151		0.00000000		0.00000000		-0.00007994
Mg		2.64308972		0.00000000		5.94019632		0.00000000		 0.00000001		 0.00007991
Mg		0.00000000		7.22954996		1.43220342		 0.00000001		-0.00000001		 0.00007619
Mg		0.00000000		7.22954996		7.58378440		0.00000000		 0.00000001		-0.00007621
O		1.75795860		5.97732858		1.39137575		 0.00021374		 0.00003124		 0.00001826
O		3.52823050		8.48177541		7.62461207		-0.00021378		-0.00003125		-0.00001823
O		3.52823050		8.48177541		1.39137575		-0.00021378		-0.00003121		 0.00001826
O		1.75795860		5.97732858		7.62461207		 0.00021378		 0.00003122		-0.00001824
O		0.88514435		13.20687752		3.11661714		-0.00021486		 0.00003338		-0.00001633
O		4.40104475		1.25222647		5.89937068		 0.00021484		-0.00003334		 0.00001647
O		4.40104475		1.25222647		3.11661765		 0.00021484		-0.00003338		-0.00001633
O		0.88514435		13.20687701		5.89937068		-0.00021483		 0.00003337		 0.00001646
O		2.59651356		3.76727859		0.00000000		 0.00047119		 0.00013989		-0.00000003
O		2.68967554		10.69182540		0.00000000		-0.00047120		-0.00013990		 0.00000003
O		0.04658684		10.99682193		4.50799391		-0.00047310		 0.00015434		 0.00000004
O		5.23960226		3.46228206		4.50799391		 0.00047308		-0.00015430		 0.00000010
O		4.15891198		5.97871697		0.00000000		-0.00011363		 0.00025520		 0.00000011
O		1.12727712		8.48038702		0.00000000		 0.00011359		-0.00025520		 0.00000004
O		3.77037294		13.20826591		4.50799391		 0.00010371		 0.00025669		 0.00000006
O		1.51581616		1.25083808		4.50799391		-0.00010376		-0.00025673		 0.00000001
O		1.89412346		1.04762191		1.29038017		-0.00003264		-0.00014340		-0.00024188
O		3.39206564		13.41148208		7.72560816		 0.00003261		 0.00014333		 0.00024177
O		3.39206564		13.41148208		1.29037966		 0.00003266		 0.00014341		-0.00024189
O		1.89412346		1.04762140		7.72560816		-0.00003262		-0.00014329		 0.00024180
O		0.74897287		8.27717085		3.21761323		 0.00003166		-0.00014291		 0.00024324
O		4.53721623		6.18193314		5.79837459		-0.00003164		 0.00014284		-0.00024323
O		4.53721623		6.18193314		3.21761323		-0.00003164		 0.00014291		 0.00024324
O		0.74897287		8.27717085		5.79837459		 0.00003162		-0.00014284		-0.00024325
O		5.18777080		3.64112713		1.42626511		 0.00002562		 0.00025300		-0.00002248
O		0.09841881		10.81797584		7.58972322		-0.00002693		-0.00024968		 0.00002034
O		0.09841830		10.81797635		1.42626460		-0.00002595		-0.00025219		-0.00002195
O		5.18777029		3.64112865		7.58972373		 0.00002743		 0.00024842		 0.00001951
O		2.74149988		10.87065469		3.08171557		-0.00000038		 0.00032144		 0.00006442
O		2.54468922		3.58844929		5.93427226		 0.00000047		-0.00032125		-0.00006425
O		2.54468922		3.58844980		3.08171557		 0.00000013		-0.00032207		 0.00006485
O		2.74149988		10.87065418		5.93427226		 0.00000011		 0.00032274		-0.00006526
O		1.05226955		13.32913966		0.00000000		-0.00008181		 0.00028954		-0.00000002
O		4.23391955		1.12996433		0.00000000		 0.00008182		-0.00028953		-0.00000004
O		1.59083340		6.09959021		4.50799391		 0.00008172		 0.00028813		-0.00000002
O		3.69535621		8.35951377		4.50799391		-0.00008174		-0.00028816		-0.00000001
H		4.87059431		4.42244619		0.92270768		-0.00027756		 0.00049688		 0.00017554
H		0.41559479		10.03665881		8.09327963		 0.00027881		-0.00049994		-0.00017353
H		0.41559479		10.03665780		0.92270768		 0.00027787		-0.00049760		 0.00017505
H		4.87059482		4.42244466		8.09327963		-0.00027926		 0.00050107		-0.00017278
H		3.05869367		11.65201447		3.58529845		 0.00025284		 0.00043548		-0.00021527
H		2.22749543		2.80708952		5.43068887		-0.00025292		-0.00043570		 0.00021513
H		2.22749543		2.80708952		3.58529896		-0.00025259		-0.00043487		-0.00021567
H		3.05869367		11.65201447		5.43068887		 0.00025235		 0.00043427		 0.00021607
