# total energy = -49447.1899502 eV

CRYSTAL
PRIMVEC
		5.23924193		0.00000509		0.00000000
		0.00000509		14.34043750		0.00000000
		0.00000000		0.00000000		8.94412651
PRIMECORD
   70 1
Si		2.61962046		0.00000000		0.00000000		 0.00000001		-0.00000002		 0.00000010
Si		0.00000000		7.17021926		4.47206275		-0.00000000		-0.00000003		 0.00000001
Si		2.54397569		5.40236127		0.00000000		 0.00004524		-0.00004130		-0.00000003
Si		2.69527286		8.93807980		0.00000000		-0.00004521		 0.00004128		-0.00000002
Si		0.07565138		12.57258358		4.47206275		-0.00003608		-0.00005519		-0.00000015
Si		5.16359716		1.76785748		4.47206275		 0.00003598		 0.00005521		-0.00000014
Mg		0.90147216		2.50232709		0.00000000		-0.00002340		 0.00017936		 0.00000005
Mg		4.33777639		11.83811448		0.00000000		 0.00002340		-0.00017934		 0.00000003
Mg		1.71815491		9.67254788		4.47206275		 0.00002313		 0.00017434		0.00000000
Mg		3.52109363		4.66789318		4.47206275		-0.00002314		-0.00017432		-0.00000002
Mg		0.83032693		4.63234780		2.89127277		-0.00005555		-0.00020858		 0.00011291
Mg		4.40892162		9.70809378		6.05285222		 0.00005554		 0.00020857		-0.00011293
Mg		4.40892162		9.70809378		2.89127277		 0.00005553		 0.00020861		 0.00011292
Mg		0.83032693		4.63234729		6.05285222		-0.00005555		-0.00020855		-0.00011292
Mg		1.78930269		11.80256859		1.58078998		 0.00005435		-0.00021344		-0.00011448
Mg		3.44994637		2.53787248		7.36333552		-0.00005432		 0.00021352		 0.00011452
Mg		3.44994637		2.53787248		1.58078998		-0.00005433		 0.00021346		-0.00011448
Mg		1.78930269		11.80256859		7.36333501		 0.00005433		-0.00021349		 0.00011451
Mg		2.61962453		7.17022079		2.87918239		0.00000000		-0.00000003		-0.00021145
Mg		2.61962453		7.17022028		6.06494260		-0.00000001		-0.00000001		 0.00021148
Mg		0.00000000		0.00000000		1.59288087		 0.00000002		 0.00000001		 0.00020983
Mg		0.00000000		0.00000000		7.35124514		 0.00000002		-0.00000002		-0.00020983
Mg		2.61962046		0.00000000		3.05282610		 0.00000002		-0.00000001		 0.00014115
Mg		2.61962046		0.00000000		5.89129991		-0.00000001		-0.00000001		-0.00014122
Mg		0.00000000		7.17021926		1.41923716		-0.00000001		-0.00000001		-0.00014390
Mg		0.00000000		7.17021926		7.52488783		-0.00000000		0.00000000		 0.00014389
O		1.74300187		5.92993100		1.38659986		 0.00014778		-0.00009241		-0.00022182
O		3.49624667		8.41051007		7.55752513		-0.00014780		 0.00009242		 0.00022183
O		3.49624667		8.41051058		1.38659986		-0.00014780		 0.00009245		-0.00022183
O		1.74300187		5.92993049		7.55752513		 0.00014781		-0.00009241		 0.00022185
O		0.87662876		13.10014873		3.08546187		-0.00014858		-0.00009081		 0.00022332
O		4.36261979		1.24029233		5.85866362		 0.00014858		 0.00009080		-0.00022316
O		4.36261979		1.24029233		3.08546187		 0.00014856		 0.00009077		 0.00022334
O		0.87662876		13.10014873		5.85866311		-0.00014855		-0.00009076		-0.00022317
O		2.57678858		3.72750340		0.00000000		-0.00027896		-0.00002426		-0.00000005
O		2.66245997		10.61293817		0.00000000		 0.00027894		 0.00002425		 0.00000001
O		0.04284002		10.89771757		4.47206275		 0.00027756		-0.00001309		 0.00000007
O		5.19640852		3.44272349		4.47206275		-0.00027752		 0.00001303		 0.00000009
O		4.13565698		5.92934826		0.00000000		-0.00009090		 0.00025680		 0.00000010
O		1.10359156		8.41109281		0.00000000		 0.00009088		-0.00025676		 0.00000007
O		3.72321711		13.09956701		4.47206275		 0.00008361		 0.00025803		 0.00000009
O		1.51603144		1.24087405		4.47206275		-0.00008354		-0.00025797		 0.00000003
O		1.87184461		1.04320685		1.28632545		 0.00022329		-0.00033958		-0.00041844
O		3.36740394		13.29723421		7.65780005		-0.00022326		 0.00033956		 0.00041836
O		3.36740394		13.29723421		1.28632494		-0.00022327		 0.00033961		-0.00041843
O		1.87184461		1.04320685		7.65780005		 0.00022323		-0.00033956		 0.00041834
O		0.74778094		8.21342510		3.18573679		-0.00022397		-0.00033917		 0.00041940
O		4.49146761		6.12701597		5.75838820		 0.00022398		 0.00033921		-0.00041941
O		4.49146761		6.12701597		3.18573679		 0.00022399		 0.00033922		 0.00041940
O		0.74778094		8.21342510		5.75838820		-0.00022400		-0.00033921		-0.00041938
O		5.14154530		3.61690311		1.41453455		-0.00013549		-0.00038011		 0.00044721
O		0.09770375		10.72353694		7.52959094		 0.00013421		 0.00038337		-0.00044930
O		0.09770375		10.72353745		1.41453455		 0.00013510		 0.00038104		 0.00044783
O		5.14154479		3.61690464		7.52959145		-0.00013369		-0.00038473		-0.00045019
O		2.71731912		10.78710659		3.05751852		 0.00015266		-0.00033296		-0.00041862
O		2.52192994		3.55333498		5.88660646		-0.00015302		 0.00033203		 0.00041807
O		2.52192994		3.55333498		3.05751852		-0.00015331		 0.00033126		-0.00041750
O		2.71731861		10.78710609		5.88660646		 0.00015328		-0.00033143		 0.00041766
O		1.03619722		13.21615906		0.00000000		-0.00001777		-0.00020650		-0.00000004
O		4.20305132		1.12428201		0.00000000		 0.00001776		 0.00020648		-0.00000004
O		1.58343341		6.04594081		4.47206275		 0.00001766		-0.00020758		-0.00000002
O		3.65581564		8.29450076		4.47206275		-0.00001767		 0.00020757		-0.00000004
H		4.82556533		4.39914539		0.91263270		-0.00034311		 0.00088412		-0.00004174
H		0.41368321		9.94129669		8.03149178		 0.00034433		-0.00088713		 0.00004370
H		0.41368321		9.94129618		0.91263270		 0.00034346		-0.00088499		-0.00004232
H		4.82556584		4.39914386		8.03149178		-0.00034485		 0.00088840		 0.00004453
H		3.03331029		11.56937636		3.55943768		 0.00032628		 0.00084211		 0.00001470
H		2.20593826		2.77106471		5.38468680		-0.00032594		-0.00084131		-0.00001417
H		2.20593826		2.77106420		3.55943819		-0.00032565		-0.00084055		 0.00001367
H		3.03331029		11.56937687		5.38468680		 0.00032573		 0.00084075		-0.00001381
