# total energy = -14249.9843333 eV

CRYSTAL
PRIMVEC
		7.68541323		0.00000000		0.00000000
		0.00000000		7.68541323		0.00000000
		0.00000000		0.00000000		4.88048229
PRIMECORD
   24 1
Ca		2.57489620		1.26780965		2.47141160		-0.00024827		 0.00024829		-0.00075831
Ca		5.11051704		6.41760358		2.47141160		 0.00024827		-0.00024832		-0.00075830
Ca		1.26780965		5.11051626		2.40906837		 0.00024840		 0.00024840		 0.00075885
Ca		6.41760281		2.57489697		2.40906837		-0.00024839		-0.00024840		 0.00075884
Si		1.09773651		2.74496933		4.53925381		-0.00022029		 0.00022063		 0.00011661
Si		6.58767672		4.94044312		4.53925381		 0.00022027		-0.00022062		 0.00011660
Si		2.74496933		6.58767595		0.34122848		 0.00022184		 0.00022208		-0.00012284
Si		4.94044390		1.09773728		0.34122770		-0.00022181		-0.00022214		-0.00012208
Mg		0.00000000		0.00000000		0.00000000		 0.00000003		0.00000000		-0.00000009
Mg		3.84270662		3.84270662		0.00000000		-0.00000003		 0.00000004		-0.00000005
O		3.84270662		0.00000000		0.91887823		 0.00000016		 0.00000015		 0.00070695
O		0.00000000		3.84270662		3.96160252		-0.00000007		-0.00000000		-0.00070702
O		1.09306913		2.74963748		1.25980678		 0.00001433		-0.00001436		-0.00025546
O		6.59234410		4.93577575		1.25980678		-0.00001431		 0.00001432		-0.00025551
O		2.74963748		6.59234410		3.62067165		-0.00001458		-0.00001461		 0.00025919
O		4.93577575		1.09306913		3.62067242		 0.00001459		 0.00001458		 0.00025880
O		0.62816143		1.39599392		3.76969986		 0.00019921		 0.00013330		-0.00006705
O		7.05725180		6.28941932		3.76969986		-0.00019925		-0.00013334		-0.00006702
O		1.39599469		7.05725180		1.11078011		 0.00013158		-0.00019880		 0.00006795
O		6.28941854		0.62816143		1.11078011		-0.00013187		 0.00019889		 0.00006782
O		3.21454518		5.23870053		1.11078011		-0.00019869		 0.00013143		 0.00006801
O		4.47086805		2.44671193		1.11078011		 0.00019880		-0.00013158		 0.00006796
O		2.44671270		3.21454518		3.76969986		-0.00013353		-0.00019930		-0.00006695
O		5.23870053		4.47086805		3.76969986		 0.00013360		 0.00019936		-0.00006691
