# total energy = -14247.597755 eV

CRYSTAL
PRIMVEC
		8.34488271		0.00000000		0.00000000
		0.00000000		8.34489044		0.00000000
		0.00000000		0.00000000		5.50414641
PRIMECORD
   24 1
Ca		2.52037960		1.65207644		2.60241268		-0.00034831		 0.00034867		 0.00000525
Ca		5.82450002		6.69281400		2.60241422		 0.00034830		-0.00034866		 0.00000525
Ca		1.65205712		5.82452476		2.90174146		 0.00034979		 0.00035018		-0.00002036
Ca		6.69282250		2.52036568		2.90174146		-0.00034979		-0.00035019		-0.00002046
Si		1.15745694		3.01498596		5.08299669		 0.00024373		-0.00024376		-0.00005904
Si		7.18742422		5.32990448		5.08299746		-0.00024377		 0.00024378		-0.00005903
Si		3.01497900		7.18743041		0.42109252		-0.00023906		-0.00023912		 0.00020714
Si		5.32989984		1.15746003		0.42109174		 0.00023901		 0.00023908		 0.00020904
Mg		0.00000000		0.00000000		0.00000000		 0.00000004		-0.00000001		 0.00000666
Mg		4.17243981		4.17244522		0.00000000		-0.00000006		 0.00000003		 0.00000678
O		4.17244136		0.00000000		0.89841150		 0.00000018		 0.00000014		-0.00020858
O		0.00000000		4.17244677		4.60574186		-0.00000002		-0.00000002		 0.00019322
O		1.30202495		2.87041486		1.19096726		-0.00079998		 0.00079980		-0.00032399
O		7.04285390		5.47447635		1.19096726		 0.00079999		-0.00079984		-0.00032396
O		2.87041486		7.04286550		4.31322089		 0.00079026		 0.00079016		 0.00022364
O		5.47446553		1.30202495		4.31322243		-0.00079010		-0.00079003		 0.00022233
O		0.66181012		1.60813835		4.33420320		-0.00060258		-0.00039680		-0.00009301
O		7.68307104		6.73675209		4.33420320		 0.00060254		 0.00039685		-0.00009301
O		1.60812444		7.68308032		1.16994939		-0.00037948		 0.00059365		 0.00007706
O		6.73675518		0.66181167		1.16995017		 0.00037911		-0.00059358		 0.00007685
O		3.51063123		5.78057739		1.16995094		 0.00059378		-0.00037945		 0.00007711
O		4.83424761		2.56431305		1.16995094		-0.00059366		 0.00037917		 0.00007694
O		2.56430610		3.51062737		4.33420552		 0.00039680		 0.00060241		-0.00009294
O		5.78057430		4.83426307		4.33420629		-0.00039675		-0.00060249		-0.00009292
