# total energy = -92495.8842728 eV	

CRYSTAL	
PRIMVEC	
		18.03749964		0.00000000		0.00000000	
		0.00000000		17.89998175		0.00000000	
		0.00000000		0.00000000		5.26999823	
PRIMCOORD
   164 1	
Mg		2.34487495		3.04299834		2.00260077		 0.00026832		 0.00017377		 0.00031527	
Mg		15.69262469		14.85699062		3.26739927		-0.00026832		-0.00017377		-0.00031527	
Mg		6.67387487		14.85699062		4.63759989		-0.00026832		-0.00017377		 0.00031527	
Mg		11.36362477		3.04299834		0.63240015		 0.00026832		 0.00017377		-0.00031527	
Mg		15.69262469		11.99299462		3.26739927		-0.00026832		 0.00017377		-0.00031527	
Mg		2.34487495		5.90699614		2.00260077		 0.00026832		-0.00017377		 0.00031527	
Mg		11.36362477		5.90699614		0.63240015		 0.00026832		-0.00017377		-0.00031527	
Mg		6.67387487		11.99299462		4.63759989		-0.00026832		 0.00017377		 0.00031527	
Mg		2.34487495		1.43199890		4.58489973		-0.00025095		 0.00026104		 0.00003320	
Mg		15.69262469		16.46799006		0.68510031		 0.00025095		-0.00026104		-0.00003320	
Mg		6.67387487		16.46799006		1.94990061		 0.00025095		-0.00026104		 0.00003320	
Mg		11.36362477		1.43199890		3.32009943		-0.00025095		 0.00026104		-0.00003320	
Mg		15.69262469		10.38199338		0.68510031		 0.00025095		 0.00026104		-0.00003320	
Mg		2.34487495		7.51799558		4.58489973		-0.00025095		-0.00026104		 0.00003320	
Mg		11.36362477		7.51799558		3.32009943		-0.00025095		-0.00026104		-0.00003320	
Mg		6.67387487		10.38199338		1.94990061		 0.00025095		 0.00026104		 0.00003320	
Mg		2.34487495		17.54199149		2.00260077		-0.00026689		 0.00049885		 0.00038946	
Mg		15.69262469		0.35799927		3.26739927		 0.00026689		-0.00049885		-0.00038946	
Mg		6.67387487		0.35799927		4.63759989		 0.00026689		-0.00049885		 0.00038946	
Mg		11.36362477		17.54199149		0.63240015		-0.00026689		 0.00049885		-0.00038946	
Mg		15.69262469		8.59199521		3.26739927		 0.00026689		 0.00049885		-0.00038946	
Mg		2.34487495		9.30799556		2.00260077		-0.00026689		-0.00049885		 0.00038946	
Mg		11.36362477		9.30799556		0.63240015		-0.00026689		-0.00049885		-0.00038946	
Mg		6.67387487		8.59199521		4.63759989		 0.00026689		 0.00049885		 0.00038946	
Mg		2.34487495		4.47499724		4.58489973		 0.00024111		0.00000000		 0.00004608	
Mg		15.69262469		13.42499352		0.68510031		-0.00024111		0.00000000		-0.00004608	
Mg		6.67387487		13.42499352		1.94990061		-0.00024111		0.00000000		 0.00004608	
Mg		11.36362477		4.47499724		3.32009943		 0.00024111		0.00000000		-0.00004608	
Si		0.54112499		14.67799189		1.52829931		-0.00021634		 0.00012817		 0.00029086	
Si		17.49637646		3.22199707		3.74170073		 0.00021634		-0.00012817		-0.00029086	
Si		8.47762483		3.22199707		4.16330023		 0.00021634		-0.00012817		 0.00029086	
Si		9.55987301		14.67799189		1.10669981		-0.00021634		 0.00012817		-0.00029086	
Si		17.49637646		5.72799741		3.74170073		 0.00021634		 0.00012817		-0.00029086	
Si		0.54112499		12.17199336		1.52829931		-0.00021634		-0.00012817		 0.00029086	
Si		9.55987301		12.17199336		1.10669981		-0.00021634		-0.00012817		-0.00029086	
Si		8.47762483		5.72799741		4.16330023		 0.00021634		 0.00012817		 0.00029086	
Si		0.54112499		16.46799006		4.16330023		 0.00013661		 0.00031682		 0.00000632	
Si		17.49637646		1.43199890		1.10669981		-0.00013661		-0.00031682		-0.00000632	
Si		8.47762483		1.43199890		1.52829931		-0.00013661		-0.00031682		 0.00000632	
Si		9.55987301		16.46799006		3.74170073		 0.00013661		 0.00031682		-0.00000632	
Si		17.49637646		7.51799558		1.10669981		-0.00013661		 0.00031682		-0.00000632	
Si		0.54112499		10.38199338		4.16330023		 0.00013661		-0.00031682		 0.00000632	
Si		9.55987301		10.38199338		3.74170073		 0.00013661		-0.00031682		-0.00000632	
Si		8.47762483		7.51799558		1.52829931		-0.00013661		 0.00031682		 0.00000632	
Si		3.96824992		16.46799006		0.21080065		 0.00019839		-0.00026191		 0.00020285	
Si		14.06924792		1.43199890		5.05919939		-0.00019839		 0.00026191		-0.00020285	
Si		5.05049990		1.43199890		2.84579977		-0.00019839		 0.00026191		 0.00020285	
Si		12.98700155		16.46799006		2.42420027		 0.00019839		-0.00026191		-0.00020285	
Si		14.06924792		7.51799558		5.05919939		-0.00019839		-0.00026191		-0.00020285	
Si		3.96824992		10.38199338		0.21080065		 0.00019839		 0.00026191		 0.00020285	
Si		12.98700155		10.38199338		2.42420027		 0.00019839		 0.00026191		-0.00020285	
Si		5.05049990		7.51799558		2.84579977		-0.00019839		-0.00026191		 0.00020285	
Si		3.96824992		14.67799189		2.84579977		 0.00009011		 0.00017968		 0.00010440	
Si		14.06924792		3.22199707		2.42420027		-0.00009011		-0.00017968		-0.00010440	
Si		5.05049990		3.22199707		0.21080065		-0.00009011		-0.00017968		 0.00010440	
Si		12.98700155		14.67799189		5.05919939		 0.00009011		 0.00017968		-0.00010440	
Si		14.06924792		5.72799741		2.42420027		-0.00009011		 0.00017968		-0.00010440	
Si		3.96824992		12.17199336		2.84579977		 0.00009011		-0.00017968		 0.00010440	
Si		12.98700155		12.17199336		5.05919939		 0.00009011		-0.00017968		-0.00010440	
Si		5.05049990		5.72799741		0.21080065		-0.00009011		 0.00017968		 0.00010440	
O		1.08224998		1.25299836		1.05399965		 0.00002014		 0.00026464		-0.00053817	
O		16.95524966		16.64699060		4.21600039		-0.00002014		-0.00026464		 0.00053817	
O		7.93649984		16.64699060		3.68900057		-0.00002014		-0.00026464		-0.00053817	
O		10.10099980		1.25299836		1.58099947		 0.00002014		 0.00026464		 0.00053817	
O		16.95524966		10.20299465		4.21600039		-0.00002014		 0.00026464		 0.00053817	
O		1.08224998		7.69699612		1.05399965		 0.00002014		-0.00026464		-0.00053817	
O		10.10099980		7.69699612		1.58099947		 0.00002014		-0.00026464		 0.00053817	
O		7.93649984		10.20299465		3.68900057		-0.00002014		 0.00026464		-0.00053817	
O		1.08224998		3.22199707		3.68900057		 0.00039035		 0.00030067		-0.00035258	
O		16.95524966		14.67799189		1.58099947		-0.00039035		-0.00030067		 0.00035258	
O		7.93649984		14.67799189		1.05399965		-0.00039035		-0.00030067		-0.00035258	
O		10.10099980		3.22199707		4.21600039		 0.00039035		 0.00030067		 0.00035258	
O		16.95524966		12.17199336		1.58099947		-0.00039035		 0.00030067		 0.00035258	
O		1.08224998		5.72799741		3.68900057		 0.00039035		-0.00030067		-0.00035258	
O		10.10099980		5.72799741		4.21600039		 0.00039035		-0.00030067		 0.00035258	
O		7.93649984		12.17199336		1.05399965		-0.00039035		 0.00030067		-0.00035258	
O		1.08224998		13.42499352		1.05399965		-0.00017413		0.00000000		 0.00002554	
O		16.95524966		4.47499724		4.21600039		 0.00017413		0.00000000		-0.00002554	
O		7.93649984		4.47499724		3.68900057		 0.00017413		0.00000000		 0.00002554	
O		10.10099980		13.42499352		1.58099947		-0.00017413		0.00000000		-0.00002554	
O		1.08224998		4.47499724		1.05399965		 0.00073413		0.00000000		 0.00006618	
O		16.95524966		13.42499352		4.21600039		-0.00073413		-0.00000000		-0.00006618	
O		7.93649984		13.42499352		3.68900057		-0.00073413		0.00000000		 0.00006618	
O		10.10099980		4.47499724		1.58099947		 0.00073413		-0.00000000		-0.00006618	
O		1.08224998		0.00000000		3.68900057		-0.00030448		 0.00018958		-0.00011728	
O		16.95524966		0.00000000		1.58099947		 0.00030448		-0.00018958		 0.00011728	
O		7.93649984		0.00000000		1.05399965		 0.00030448		-0.00018958		-0.00011728	
O		10.10099980		0.00000000		4.21600039		-0.00030448		 0.00018958		 0.00011728	
O		16.95524966		8.94999448		1.58099947		 0.00030448		 0.00018958		 0.00011728	
O		1.08224998		8.94999448		3.68900057		-0.00030448		-0.00018958		-0.00011728	
O		10.10099980		8.94999448		4.21600039		-0.00030448		-0.00018958		 0.00011728	
O		7.93649984		8.94999448		1.05399965		 0.00030448		 0.00018958		-0.00011728	
O		0.90187498		15.57299097		0.26350081		-0.00052058		 0.00013135		 0.00026136	
O		17.13562466		2.32699979		5.00649922		 0.00052058		-0.00013135		-0.00026136	
O		8.11687484		2.32699979		2.89849993		 0.00052058		-0.00013135		 0.00026136	
O		9.92062480		15.57299097		2.37150011		-0.00052058		 0.00013135		-0.00026136	
O		17.13562466		6.62299649		5.00649922		 0.00052058		 0.00013135		-0.00026136	
O		0.90187498		11.27699427		0.26350081		-0.00052058		-0.00013135		 0.00026136	
O		9.92062480		11.27699427		2.37150011		-0.00052058		-0.00013135		-0.00026136	
O		8.11687484		6.62299649		2.89849993		 0.00052058		 0.00013135		 0.00026136	
O		0.90187498		15.57299097		2.84579977		 0.00005404		 0.00014720		 0.00024874	
O		17.13562466		2.32699979		2.42420027		-0.00005404		-0.00014720		-0.00024874	
O		8.11687484		2.32699979		0.21080065		-0.00005404		-0.00014720		 0.00024874	
O		9.92062480		15.57299097		5.05919939		 0.00005404		 0.00014720		-0.00024874	
O		17.13562466		6.62299649		2.42420027		-0.00005404		 0.00014720		-0.00024874	
O		0.90187498		11.27699427		2.84579977		 0.00005404		-0.00014720		 0.00024874	
O		9.92062480		11.27699427		5.05919939		 0.00005404		-0.00014720		-0.00024874	
O		8.11687484		6.62299649		0.21080065		-0.00005404		 0.00014720		 0.00024874	
O		3.42712493		3.22199707		0.26350081		-0.00002745		-0.00007275		 0.00000608	
O		14.61037471		14.67799189		5.00649922		 0.00002745		 0.00007275		-0.00000608	
O		5.59162489		14.67799189		2.89849993		 0.00002745		 0.00007275		 0.00000608	
O		12.44587475		3.22199707		2.37150011		-0.00002745		-0.00007275		-0.00000608	
O		14.61037471		12.17199336		5.00649922		 0.00002745		-0.00007275		-0.00000608	
O		3.42712493		5.72799741		0.26350081		-0.00002745		 0.00007275		 0.00000608	
O		12.44587475		5.72799741		2.37150011		-0.00002745		 0.00007275		-0.00000608	
O		5.59162489		12.17199336		2.89849993		 0.00002745		-0.00007275		 0.00000608	
O		3.42712493		1.25299836		2.95120009		-0.00030103		 0.00024623		-0.00031705	
O		14.61037471		16.64699060		2.31879994		 0.00030103		-0.00024623		 0.00031705	
O		5.59162489		16.64699060		0.31619917		 0.00030103		-0.00024623		-0.00031705	
O		12.44587475		1.25299836		4.95379906		-0.00030103		 0.00024623		 0.00031705	
O		14.61037471		10.20299465		2.31879994		 0.00030103		 0.00024623		 0.00031705	
O		3.42712493		7.69699612		2.95120009		-0.00030103		-0.00024623		-0.00031705	
O		12.44587475		7.69699612		4.95379906		-0.00030103		-0.00024623		 0.00031705	
O		5.59162489		10.20299465		0.31619917		 0.00030103		 0.00024623		-0.00031705	
O		3.42712493		0.00000000		0.26350081		-0.00014561		-0.00024993		 0.00030273	
O		14.61037471		0.00000000		5.00649922		 0.00014561		 0.00024993		-0.00030273	
O		5.59162489		0.00000000		2.89849993		 0.00014561		 0.00024993		 0.00030273	
O		12.44587475		0.00000000		2.37150011		-0.00014561		-0.00024993		-0.00030273	
O		14.61037471		8.94999448		5.00649922		 0.00014561		-0.00024993		-0.00030273	
O		3.42712493		8.94999448		0.26350081		-0.00014561		 0.00024993		 0.00030273	
O		12.44587475		8.94999448		2.37150011		-0.00014561		 0.00024993		-0.00030273	
O		5.59162489		8.94999448		2.89849993		 0.00014561		-0.00024993		 0.00030273	
O		3.42712493		13.42499352		2.37150011		 0.00038316		-0.00000000		-0.00021121	
O		14.61037471		4.47499724		2.89849993		-0.00038316		-0.00000000		 0.00021121	
O		5.59162489		4.47499724		5.00649922		-0.00038316		0.00000000		-0.00021121	
O		12.44587475		13.42499352		0.26350081		 0.00038316		0.00000000		 0.00021121	
O		3.42712493		4.47499724		2.89849993		-0.00058545		0.00000000		 0.00018315	
O		14.61037471		13.42499352		2.37150011		 0.00058545		0.00000000		-0.00018315	
O		5.59162489		13.42499352		0.26350081		 0.00058545		0.00000000		 0.00018315	
O		12.44587475		4.47499724		5.00649922		-0.00058545		0.00000000		-0.00018315	
O		3.60749993		15.57299097		1.58099947		 0.00004679		 0.00021665		 0.00029203	
O		14.42999971		2.32699979		3.68900057		-0.00004679		-0.00021665		-0.00029203	
O		5.41124989		2.32699979		4.21600039		-0.00004679		-0.00021665		 0.00029203	
O		12.62624975		15.57299097		1.05399965		 0.00004679		 0.00021665		-0.00029203	
O		14.42999971		6.62299649		3.68900057		-0.00004679		 0.00021665		-0.00029203	
O		3.60749993		11.27699427		1.58099947		 0.00004679		-0.00021665		 0.00029203	
O		12.62624975		11.27699427		1.05399965		 0.00004679		-0.00021665		-0.00029203	
O		5.41124989		6.62299649		4.21600039		-0.00004679		 0.00021665		 0.00029203	
O		3.60749993		15.57299097		4.21600039		-0.00012836		 0.00012882		 0.00014615	
O		14.42999971		2.32699979		1.05399965		 0.00012836		-0.00012882		-0.00014615	
O		5.41124989		2.32699979		1.58099947		 0.00012836		-0.00012882		 0.00014615	
O		12.62624975		15.57299097		3.68900057		-0.00012836		 0.00012882		-0.00014615	
O		14.42999971		6.62299649		1.05399965		 0.00012836		 0.00012882		-0.00014615	
O		3.60749993		11.27699427		4.21600039		-0.00012836		-0.00012882		 0.00014615	
O		12.62624975		11.27699427		3.68900057		-0.00012836		-0.00012882		-0.00014615	
O		5.41124989		6.62299649		1.58099947		 0.00012836		 0.00012882		 0.00014615	
H		17.49637646		0.00000000		0.79050064		 0.00001583		 0.00019329		-0.00027119	
H		0.54112319		0.00000000		4.47949940		-0.00001583		-0.00019329		 0.00027119	
H		9.55987301		0.00000000		3.42549975		-0.00001583		-0.00019329		-0.00027119	
H		8.47762664		0.00000000		1.84450028		 0.00001583		 0.00019329		 0.00027119	
H		0.54112319		8.94999448		4.47949940		-0.00001583		 0.00019329		 0.00027119	
H		17.49637646		8.94999448		0.79050064		 0.00001583		-0.00019329		-0.00027119	
H		8.47762664		8.94999448		1.84450028		 0.00001583		-0.00019329		 0.00027119	
H		9.55987301		8.94999448		3.42549975		-0.00001583		 0.00019329		-0.00027119	
