# total energy = -92498.6084783 eV	

CRYSTAL	
PRIMVEC	
		19.42499962		0.00000000		0.00000000	
		0.00000000		17.89998175		0.00000000	
		0.00000000		0.00000000		5.27000240	
PRIMCOORD
   164 1	
Mg		2.52524995		3.04299806		2.00260091		-0.00014289		-0.00003208		 0.00039932	
Mg		16.89974967		14.85699145		3.26739954		 0.00014289		 0.00003208		-0.00039932	
Mg		7.18724986		14.85699145		4.63760017		 0.00014289		 0.00003208		 0.00039932	
Mg		12.23774976		3.04299806		0.63240029		-0.00014289		-0.00003208		-0.00039932	
Mg		16.89974967		11.99299282		3.26739954		 0.00014289		-0.00003208		-0.00039932	
Mg		2.52524995		5.90699670		2.00260091		-0.00014289		 0.00003208		 0.00039932	
Mg		12.23774976		5.90699670		0.63240029		-0.00014289		 0.00003208		-0.00039932	
Mg		7.18724986		11.99299282		4.63760017		 0.00014289		-0.00003208		 0.00039932	
Mg		2.52524995		1.43199932		4.58490014		-0.00020817		-0.00001244		-0.00035891	
Mg		16.89974967		16.46799020		0.68510031		 0.00020817		 0.00001244		 0.00035891	
Mg		7.18724986		16.46799020		1.94990089		 0.00020817		 0.00001244		-0.00035891	
Mg		12.23774976		1.43199932		3.32009957		-0.00020817		-0.00001244		 0.00035891	
Mg		16.89974967		10.38199407		0.68510031		 0.00020817		-0.00001244		 0.00035891	
Mg		2.52524995		7.51799544		4.58490014		-0.00020817		 0.00001244		-0.00035891	
Mg		12.23774976		7.51799544		3.32009957		-0.00020817		 0.00001244		 0.00035891	
Mg		7.18724986		10.38199407		1.94990089		 0.00020817		-0.00001244		-0.00035891	
Mg		2.52524995		17.54199066		2.00260091		-0.00003786		-0.00000899		-0.00068752	
Mg		16.89974967		0.35800080		3.26739954		 0.00003786		 0.00000899		 0.00068752	
Mg		7.18724986		0.35800080		4.63760017		 0.00003786		 0.00000899		-0.00068752	
Mg		12.23774976		17.54199066		0.63240029		-0.00003786		-0.00000899		 0.00068752	
Mg		16.89974967		8.59199396		3.26739954		 0.00003786		-0.00000899		 0.00068752	
Mg		2.52524995		9.30799556		2.00260091		-0.00003786		 0.00000899		-0.00068752	
Mg		12.23774976		9.30799556		0.63240029		-0.00003786		 0.00000899		 0.00068752	
Mg		7.18724986		8.59199396		4.63760017		 0.00003786		-0.00000899		-0.00068752	
Mg		2.52524995		4.47499738		4.58490014		-0.00035683		0.00000000		 0.00056894	
Mg		16.89974967		13.42499214		0.68510031		 0.00035683		0.00000000		-0.00056894	
Mg		7.18724986		13.42499214		1.94990089		 0.00035683		0.00000000		 0.00056894	
Mg		12.23774976		4.47499738		3.32009957		-0.00035683		0.00000000		-0.00056894	
Si		0.58274999		14.67799202		1.52830069		 0.00004819		 0.00015735		-0.00014415	
Si		18.84225157		3.22199749		3.74169976		-0.00004819		-0.00015735		 0.00014415	
Si		9.12974982		3.22199749		4.16329995		-0.00004819		-0.00015735		-0.00014415	
Si		10.29524785		14.67799202		1.10670050		 0.00004819		 0.00015735		 0.00014415	
Si		18.84225157		5.72799727		3.74169976		-0.00004819		 0.00015735		 0.00014415	
Si		0.58274999		12.17199225		1.52830069		 0.00004819		-0.00015735		-0.00014415	
Si		10.29524785		12.17199225		1.10670050		 0.00004819		-0.00015735		 0.00014415	
Si		9.12974982		5.72799727		4.16329995		-0.00004819		 0.00015735		-0.00014415	
Si		0.58274999		16.46799020		4.16329995		-0.00016614		 0.00016683		-0.00002237	
Si		18.84225157		1.43199932		1.10670050		 0.00016614		-0.00016683		 0.00002237	
Si		9.12974982		1.43199932		1.52830069		 0.00016614		-0.00016683		-0.00002237	
Si		10.29524785		16.46799020		3.74169976		-0.00016614		 0.00016683		 0.00002237	
Si		18.84225157		7.51799544		1.10670050		 0.00016614		 0.00016683		 0.00002237	
Si		0.58274999		10.38199407		4.16329995		-0.00016614		-0.00016683		-0.00002237	
Si		10.29524785		10.38199407		3.74169976		-0.00016614		-0.00016683		 0.00002237	
Si		9.12974982		7.51799544		1.52830069		 0.00016614		 0.00016683		-0.00002237	
Si		4.27349992		16.46799020		0.21080010		-0.00006433		-0.00022928		-0.00011309	
Si		15.15149776		1.43199932		5.05920036		 0.00006433		 0.00022928		 0.00011309	
Si		5.43899989		1.43199932		2.84579935		 0.00006433		 0.00022928		-0.00011309	
Si		13.98600167		16.46799020		2.42419916		-0.00006433		-0.00022928		 0.00011309	
Si		15.15149776		7.51799544		5.05920036		 0.00006433		-0.00022928		 0.00011309	
Si		4.27349992		10.38199407		0.21080010		-0.00006433		 0.00022928		-0.00011309	
Si		13.98600167		10.38199407		2.42419916		-0.00006433		 0.00022928		 0.00011309	
Si		5.43899989		7.51799544		2.84579935		 0.00006433		-0.00022928		-0.00011309	
Si		4.27349992		14.67799202		2.84579935		-0.00001964		 0.00019003		-0.00002319	
Si		15.15149776		3.22199749		2.42419916		 0.00001964		-0.00019003		 0.00002319	
Si		5.43899989		3.22199749		0.21080010		 0.00001964		-0.00019003		-0.00002319	
Si		13.98600167		14.67799202		5.05920036		-0.00001964		 0.00019003		 0.00002319	
Si		15.15149776		5.72799727		2.42419916		 0.00001964		 0.00019003		 0.00002319	
Si		4.27349992		12.17199225		2.84579935		-0.00001964		-0.00019003		-0.00002319	
Si		13.98600167		12.17199225		5.05920036		-0.00001964		-0.00019003		 0.00002319	
Si		5.43899989		5.72799727		0.21080010		 0.00001964		 0.00019003		-0.00002319	
O		1.16549998		1.25299989		1.05400048		 0.00007100		-0.00037629		-0.00006043	
O		18.25949964		16.64699157		4.21599997		-0.00007100		 0.00037629		 0.00006043	
O		8.54699983		16.64699157		3.68899973		-0.00007100		 0.00037629		-0.00006043	
O		10.87799978		1.25299989		1.58100072		 0.00007100		-0.00037629		 0.00006043	
O		18.25949964		10.20299465		4.21599997		-0.00007100		-0.00037629		 0.00006043	
O		1.16549998		7.69699681		1.05400048		 0.00007100		 0.00037629		-0.00006043	
O		10.87799978		7.69699681		1.58100072		 0.00007100		 0.00037629		 0.00006043	
O		8.54699983		10.20299465		3.68899973		-0.00007100		-0.00037629		-0.00006043	
O		1.16549998		3.22199749		3.68899973		-0.00024488		-0.00010153		-0.00015150	
O		18.25949964		14.67799202		1.58100072		 0.00024488		 0.00010153		 0.00015150	
O		8.54699983		14.67799202		1.05400048		 0.00024488		 0.00010153		-0.00015150	
O		10.87799978		3.22199749		4.21599997		-0.00024488		-0.00010153		 0.00015150	
O		18.25949964		12.17199225		1.58100072		 0.00024488		-0.00010153		 0.00015150	
O		1.16549998		5.72799727		3.68899973		-0.00024488		 0.00010153		-0.00015150	
O		10.87799978		5.72799727		4.21599997		-0.00024488		 0.00010153		 0.00015150	
O		8.54699983		12.17199225		1.05400048		 0.00024488		-0.00010153		-0.00015150	
O		1.16549998		13.42499214		1.05400048		 0.00044427		0.00000000		-0.00043422	
O		18.25949964		4.47499738		4.21599997		-0.00044427		-0.00000000		 0.00043422	
O		8.54699983		4.47499738		3.68899973		-0.00044427		-0.00000000		-0.00043422	
O		10.87799978		13.42499214		1.58100072		 0.00044427		0.00000000		 0.00043422	
O		1.16549998		4.47499738		1.05400048		-0.00092239		0.00000000		-0.00082798	
O		18.25949964		13.42499214		4.21599997		 0.00092239		0.00000000		 0.00082798	
O		8.54699983		13.42499214		3.68899973		 0.00092239		-0.00000000		-0.00082798	
O		10.87799978		4.47499738		1.58100072		-0.00092239		-0.00000000		 0.00082798	
O		1.16549998		0.00000000		3.68899973		-0.00014594		-0.00011628		 0.00005455	
O		18.25949964		0.00000000		1.58100072		 0.00014594		 0.00011628		-0.00005455	
O		8.54699983		0.00000000		1.05400048		 0.00014594		 0.00011628		 0.00005455	
O		10.87799978		0.00000000		4.21599997		-0.00014594		-0.00011628		-0.00005455	
O		18.25949964		8.94999476		1.58100072		 0.00014594		-0.00011628		-0.00005455	
O		1.16549998		8.94999476		3.68899973		-0.00014594		 0.00011628		 0.00005455	
O		10.87799978		8.94999476		4.21599997		-0.00014594		 0.00011628		-0.00005455	
O		8.54699983		8.94999476		1.05400048		 0.00014594		-0.00011628		 0.00005455	
O		0.97124998		15.57299111		0.26350012		 0.00057490		 0.00028213		-0.00034988	
O		18.45374963		2.32699840		5.00650033		-0.00057490		-0.00028213		 0.00034988	
O		8.74124983		2.32699840		2.89849938		-0.00057490		-0.00028213		-0.00034988	
O		10.68374979		15.57299111		2.37149914		 0.00057490		 0.00028213		 0.00034988	
O		18.45374963		6.62299635		5.00650033		-0.00057490		 0.00028213		 0.00034988	
O		0.97124998		11.27699316		0.26350012		 0.00057490		-0.00028213		-0.00034988	
O		10.68374979		11.27699316		2.37149914		 0.00057490		-0.00028213		 0.00034988	
O		8.74124983		6.62299635		2.89849938		-0.00057490		 0.00028213		-0.00034988	
O		0.97124998		15.57299111		2.84579935		 0.00012166		 0.00013699		-0.00046026	
O		18.45374963		2.32699840		2.42419916		-0.00012166		-0.00013699		 0.00046026	
O		8.74124983		2.32699840		0.21080010		-0.00012166		-0.00013699		-0.00046026	
O		10.68374979		15.57299111		5.05920036		 0.00012166		 0.00013699		 0.00046026	
O		18.45374963		6.62299635		2.42419916		-0.00012166		 0.00013699		 0.00046026	
O		0.97124998		11.27699316		2.84579935		 0.00012166		-0.00013699		-0.00046026	
O		10.68374979		11.27699316		5.05920036		 0.00012166		-0.00013699		 0.00046026	
O		8.74124983		6.62299635		0.21080010		-0.00012166		 0.00013699		-0.00046026	
O		3.69074993		3.22199749		0.26350012		 0.00025190		-0.00010070		 0.00014402	
O		15.73424969		14.67799202		5.00650033		-0.00025190		 0.00010070		-0.00014402	
O		6.02174988		14.67799202		2.89849938		-0.00025190		 0.00010070		 0.00014402	
O		13.40324973		3.22199749		2.37149914		 0.00025190		-0.00010070		-0.00014402	
O		15.73424969		12.17199225		5.00650033		-0.00025190		-0.00010070		-0.00014402	
O		3.69074993		5.72799727		0.26350012		 0.00025190		 0.00010070		 0.00014402	
O		13.40324973		5.72799727		2.37149914		 0.00025190		 0.00010070		-0.00014402	
O		6.02174988		12.17199225		2.89849938		-0.00025190		-0.00010070		 0.00014402	
O		3.69074993		1.25299989		2.95119940		 0.00001711		 0.00025069		 0.00016067	
O		15.73424969		16.64699157		2.31879911		-0.00001711		-0.00025069		-0.00016067	
O		6.02174988		16.64699157		0.31620014		-0.00001711		-0.00025069		 0.00016067	
O		13.40324973		1.25299989		4.95380031		 0.00001711		 0.00025069		-0.00016067	
O		15.73424969		10.20299465		2.31879911		-0.00001711		 0.00025069		-0.00016067	
O		3.69074993		7.69699681		2.95119940		 0.00001711		-0.00025069		 0.00016067	
O		13.40324973		7.69699681		4.95380031		 0.00001711		-0.00025069		-0.00016067	
O		6.02174988		10.20299465		0.31620014		-0.00001711		 0.00025069		 0.00016067	
O		3.69074993		0.00000000		0.26350012		-0.00023376		-0.00028562		-0.00008586	
O		15.73424969		0.00000000		5.00650033		 0.00023376		 0.00028562		 0.00008586	
O		6.02174988		0.00000000		2.89849938		 0.00023376		 0.00028562		-0.00008586	
O		13.40324973		0.00000000		2.37149914		-0.00023376		-0.00028562		 0.00008586	
O		15.73424969		8.94999476		5.00650033		 0.00023376		-0.00028562		 0.00008586	
O		3.69074993		8.94999476		0.26350012		-0.00023376		 0.00028562		-0.00008586	
O		13.40324973		8.94999476		2.37149914		-0.00023376		 0.00028562		 0.00008586	
O		6.02174988		8.94999476		2.89849938		 0.00023376		-0.00028562		-0.00008586	
O		3.69074993		13.42499214		2.37149914		 0.00066346		0.00000000		-0.00001106	
O		15.73424969		4.47499738		2.89849938		-0.00066346		0.00000000		 0.00001106	
O		6.02174988		4.47499738		5.00650033		-0.00066346		-0.00000000		-0.00001106	
O		13.40324973		13.42499214		0.26350012		 0.00066346		0.00000000		 0.00001106	
O		3.69074993		4.47499738		2.89849938		-0.00006494		0.00000000		 0.00002785	
O		15.73424969		13.42499214		2.37149914		 0.00006494		0.00000000		-0.00002785	
O		6.02174988		13.42499214		0.26350012		 0.00006494		0.00000000		 0.00002785	
O		13.40324973		4.47499738		5.00650033		-0.00006494		0.00000000		-0.00002785	
O		3.88499992		15.57299111		1.58100072		-0.00013476		 0.00002300		-0.00011061	
O		15.53999969		2.32699840		3.68899973		 0.00013476		-0.00002300		 0.00011061	
O		5.82749988		2.32699840		4.21599997		 0.00013476		-0.00002300		-0.00011061	
O		13.59749973		15.57299111		1.05400048		-0.00013476		 0.00002300		 0.00011061	
O		15.53999969		6.62299635		3.68899973		 0.00013476		 0.00002300		 0.00011061	
O		3.88499992		11.27699316		1.58100072		-0.00013476		-0.00002300		-0.00011061	
O		13.59749973		11.27699316		1.05400048		-0.00013476		-0.00002300		 0.00011061	
O		5.82749988		6.62299635		4.21599997		 0.00013476		 0.00002300		-0.00011061	
O		3.88499992		15.57299111		4.21599997		 0.00012513		-0.00029124		-0.00019342	
O		15.53999969		2.32699840		1.05400048		-0.00012513		 0.00029124		 0.00019342	
O		5.82749988		2.32699840		1.58100072		-0.00012513		 0.00029124		-0.00019342	
O		13.59749973		15.57299111		3.68899973		 0.00012513		-0.00029124		 0.00019342	
O		15.53999969		6.62299635		1.05400048		-0.00012513		-0.00029124		 0.00019342	
O		3.88499992		11.27699316		4.21599997		 0.00012513		 0.00029124		-0.00019342	
O		13.59749973		11.27699316		3.68899973		 0.00012513		 0.00029124		 0.00019342	
O		5.82749988		6.62299635		1.58100072		-0.00012513		-0.00029124		-0.00019342	
H		18.84225157		0.00000000		0.79050036		 0.00022732		-0.00041785		 0.00045354	
H		0.58274805		0.00000000		4.47950009		-0.00022732		 0.00041785		-0.00045354	
H		10.29524785		0.00000000		3.42549961		-0.00022732		 0.00041785		 0.00045354	
H		9.12975176		0.00000000		1.84450084		 0.00022732		-0.00041785		-0.00045354	
H		0.58274805		8.94999476		4.47950009		-0.00022732		-0.00041785		-0.00045354	
H		18.84225157		8.94999476		0.79050036		 0.00022732		 0.00041785		 0.00045354	
H		9.12975176		8.94999476		1.84450084		 0.00022732		 0.00041785		-0.00045354	
H		10.29524785		8.94999476		3.42549961		-0.00022732		-0.00041785		 0.00045354	
