# total energy = -22469.9601179 eV	

CRYSTAL	
PRIMVEC	
		9.93347138		0.00000000		-0.08326470	
		0.00000000		9.05197982		0.00000000	
		-1.50723806		0.00000000		5.13389329	
PRIMCOORD
   40 1	
Mg		-0.37680952		8.20580053		1.28347332		-0.00000012		 0.00007395		 0.00000003	
Mg		-1.13043049		0.84618222		3.85041899		 0.00000003		-0.00007411		-0.00000008	
Mg		4.58992617		3.67980672		1.24183903		-0.00000007		 0.00007638		 0.00000007	
Mg		3.83630519		5.37217700		3.80878567		 0.00000007		-0.00007627		-0.00000005	
Ca		-0.37681049		2.68536971		1.28347332		 0.00000005		 0.00018612		 0.00000016	
Ca		-1.13043049		6.36661304		3.85041997		-0.00000007		-0.00018612		-0.00000014	
Ca		4.58992617		7.21135962		1.24183903		 0.00000005		 0.00018480		 0.00000007	
Ca		3.83630519		1.84062410		3.80878567		-0.00000005		-0.00018489		-0.00000012	
Si		2.48754569		0.83840604		1.19282106		 0.00018757		-0.00026177		-0.00027067	
Si		5.93868568		8.21357768		3.85780461		-0.00018792		 0.00026104		 0.00027047	
Si		6.69230568		0.83840702		1.29085796		-0.00018615		-0.00026359		 0.00027144	
Si		1.73392568		8.21357671		3.75976771		 0.00018739		 0.00026197		-0.00027080	
Si		7.45428722		5.36439888		1.15118969		 0.00016271		-0.00026922		-0.00027843	
Si		0.97194415		3.68758484		3.89943501		-0.00016237		 0.00026993		 0.00027863	
Si		1.72556513		5.36439888		1.33248934		-0.00016108		-0.00027103		 0.00027929	
Si		6.70066722		3.68758387		3.71813634		 0.00016079		 0.00027175		-0.00027951	
O		0.93492939		0.79564194		0.72872436		-0.00005899		-0.00013164		 0.00003626	
O		7.49130198		8.25634081		4.32190132		 0.00005924		 0.00013170		-0.00003622	
O		8.24492296		0.79564291		1.75495467		 0.00005811		-0.00013146		-0.00003655	
O		0.18130939		8.25634081		3.29567100		-0.00005884		 0.00013158		 0.00003636	
O		5.90165924		5.32162893		0.68708909		-0.00004279		-0.00012901		 0.00004144	
O		2.52457213		3.73035479		4.36353659		 0.00004258		 0.00012880		-0.00004148	
O		3.27819311		5.32162893		1.79658994		 0.00004188		-0.00012893		-0.00004180	
O		5.14803826		3.73035479		3.25403476		-0.00004163		 0.00012871		 0.00004182	
O		3.12533436		2.24908959		1.61555521		-0.00002985		-0.00033557		-0.00004290	
O		5.30089701		6.80289316		3.43506949		 0.00003007		 0.00033610		 0.00004303	
O		6.05451798		2.24908959		0.86812284		 0.00002919		-0.00033396		 0.00004245	
O		2.37171338		6.80289316		4.18250186		-0.00002978		 0.00033529		-0.00004277	
O		8.09206616		6.77507852		1.57392092		-0.00002295		-0.00032671		-0.00003972	
O		0.33416521		2.27690422		3.47670378		 0.00002274		 0.00032651		 0.00003977	
O		1.08778619		6.77507852		0.90975811		 0.00002231		-0.00032531		 0.00003935	
O		7.33844518		2.27690520		4.14086659		-0.00002208		 0.00032507		-0.00003938	
O		1.94739361		0.11216141		5.15383922		 0.00004922		-0.00019303		 0.00001565	
O		6.47883776		8.93982231		-0.10321452		-0.00004937		 0.00019323		-0.00001548	
O		5.72521678		0.11216141		2.46373115		-0.00004918		-0.00019271		-0.00001589	
O		2.70101459		8.93982231		2.58689355		 0.00004925		 0.00019297		 0.00001568	
O		6.91412540		4.63815230		5.11220687		 0.00005509		-0.00019390		 0.00001583	
O		1.51210596		4.41383045		-0.06158120		-0.00005495		 0.00019364		-0.00001606	
O		0.75848596		4.63815230		2.50536447		-0.00005496		-0.00019370		-0.00001605	
O		7.66774541		4.41383045		2.54526023		 0.00005484		 0.00019338		 0.00001634	
