# total energy = -22462.2880423 eV	

CRYSTAL	
PRIMVEC	
		11.49606989		-0.00000974		-0.89563360	
		-0.00000974		11.19359377		0.00000000	
		-2.19693544		0.00000000		5.35851025	
PRIMCOORD
   40 1	
Mg		-0.54923824		8.51181509		1.33962562		-0.00000092		 0.00047118		-0.00000063	
Mg		-1.64770207		2.68177284		4.01888074		-0.00000153		-0.00046391		 0.00000164	
Mg		5.19880060		2.91491107		0.89180784		 0.00000098		 0.00004080		-0.00000011	
Mg		4.10033093		8.27867394		3.57106102		 0.00000054		-0.00004624		 0.00000202	
Ca		-0.54923532		3.03351334		1.33962756		-0.00000015		 0.00013448		-0.00000205	
Ca		-1.64770499		8.16009406		4.01887977		-0.00000184		-0.00017255		 0.00000097	
Ca		5.19879768		8.63024399		0.89180687		 0.00000153		 0.00015506		-0.00000156	
Ca		4.10033385		2.56334003		3.57106297		-0.00000009		-0.00015724		 0.00000163	
Si		2.37334868		0.89897918		0.91394423		-0.00007434		-0.00001006		 0.00059832	
Si		6.92611303		10.29428051		3.54889444		-0.00072819		 0.00074343		-0.00065987	
Si		8.02426908		0.89897139		0.86967145		 0.00004475		 0.00000030		-0.00060069	
Si		1.27453325		10.29427759		3.59322858		 0.00075853		 0.00075642		 0.00066123	
Si		8.12134856		6.49615494		0.46619074		-0.00010721		-0.00082690		 0.00052021	
Si		1.17807711		4.69774952		3.99667812		-0.00061603		 0.00010564		-0.00065622	
Si		2.27626238		6.49613936		1.31742300		 0.00008031		-0.00079043		-0.00052368	
Si		7.02257502		4.69772712		3.14544977		 0.00064631		 0.00014354		 0.00065665	
O		1.10680198		1.81107385		0.37510896		 0.00049408		-0.00051371		 0.00012021	
O		8.19212891		9.38270790		4.08772971		 0.00003057		 0.00008316		 0.00008027	
O		9.29079824		1.81106606		1.40850867		-0.00048594		-0.00051036		-0.00011874	
O		0.00853880		9.38272056		3.05439428		-0.00004811		 0.00007004		-0.00008608	
O		6.85482134		7.40777918		-0.07266888		 0.00035486		-0.00035290		 0.00004343	
O		2.44424493		3.78582043		4.53553677		-0.00019697		 0.00032981		-0.00000961	
O		3.54277985		7.40778405		1.85628359		-0.00035926		-0.00036059		-0.00004729	
O		5.75643349		3.78583115		2.60659112		 0.00016834		 0.00030650		-0.00000129	
O		3.62955376		1.80528360		1.48393388		-0.00041130		-0.00029050		-0.00008624	
O		5.66948621		9.38827024		2.97893693		 0.00062694		 0.00034839		 0.00012239	
O		6.76804159		1.80528847		0.29968278		 0.00042953		-0.00030437		 0.00009142	
O		2.53117857		9.38826927		4.16318511		-0.00063559		 0.00035194		-0.00012357	
O		9.37749326		7.40194705		1.03611611		-0.00016806		-0.00005816		 0.00001007	
O		-0.07858185		3.79143537		3.42673425		 0.00073136		 0.00050430		 0.00016596	
O		1.02009333		7.40196555		0.74749666		 0.00019726		-0.00008188		-0.00000088	
O		8.27924663		3.79143342		3.71539071		-0.00072776		 0.00049732		-0.00016311	
O		0.72854125		-0.02581215		4.95837805		-0.00008085		-0.00005791		-0.00051574	
O		8.57049678		11.21958611		-0.49537088		 0.00026136		-0.00036847		 0.00009845	
O		7.47212938		-0.02581507		2.18375081		 0.00008106		-0.00005734		 0.00051512	
O		1.82709858		11.21958903		2.27898073		-0.00026222		-0.00037001		-0.00009673	
O		6.47667846		5.57083864		4.51047165		-0.00025123		 0.00029575		-0.00013202	
O		2.82253293		5.62258079		-0.04772063		 0.00009874		 0.00008162		 0.00049390	
O		1.72398632		5.57084351		2.63165234		 0.00025068		 0.00029462		 0.00013334	
O		7.57506827		5.62257690		1.83133437		-0.00010015		 0.00007922		-0.00049111	
