# total energy = -22468.7258338 eV	

CRYSTAL	
PRIMVEC	
		10.29078201		0.00000974		-0.27300379	
		0.00000974		9.33034045		0.00000000	
		-1.65864170		0.00000000		5.23552706	
PRIMCOORD
   40 1	
Mg		-0.41465507		8.38362797		1.30888323		-0.00000171		 0.00018375		 0.00000065	
Mg		-1.24397981		0.94671345		3.92664481		 0.00000077		-0.00019002		-0.00000123	
Mg		4.73073399		3.71845969		1.17237938		-0.00000139		 0.00007284		 0.00000104	
Mg		3.90141412		5.61188660		3.79014291		 0.00000106		-0.00007458		-0.00000099	
Ca		-0.41465994		2.68510089		1.30888128		 0.00000079		-0.00001092		 0.00000214	
Ca		-1.24397689		6.64523664		3.92664578		-0.00000087		 0.00001273		-0.00000180	
Ca		4.73073594		7.35027696		1.17238036		 0.00000063		-0.00000729		 0.00000145	
Ca		3.90141314		1.98006933		3.79014291		-0.00000088		 0.00000840		-0.00000240	
Si		2.52252387		0.83753434		1.21390362		 0.00012698		-0.00018024		 0.00039191	
Si		6.10961449		8.49280806		3.74861868		-0.00010447		 0.00018776		-0.00038428	
Si		6.93892852		0.83754797		1.13085320		-0.00009862		-0.00021147		-0.00037965	
Si		1.69321958		8.49280124		3.83167202		 0.00009398		 0.00020128		 0.00037913	
Si		7.66789150		5.50269385		1.07739491		 0.00020709		-0.00013393		 0.00041845	
Si		0.96424199		3.82763589		3.88512155		-0.00016721		 0.00017443		-0.00040337	
Si		1.79357161		5.50269872		1.26736191		-0.00018869		-0.00015529		-0.00041012	
Si		6.83859208		3.82763102		3.69516428		 0.00014506		 0.00019900		 0.00039370	
O		0.96244794		0.82800502		0.71936256		 0.00026000		-0.00023595		-0.00024469	
O		7.66970309		8.50234031		4.24316363		-0.00027221		 0.00023983		 0.00024029	
O		8.49902004		0.82800794		1.62539913		-0.00027524		-0.00023408		 0.00023944	
O		0.13312514		8.50233446		3.33712414		 0.00027928		 0.00023892		-0.00023769	
O		6.10785648		5.49318011		0.58286164		 0.00022459		-0.00024038		-0.00025877	
O		2.52429845		3.83716521		4.37966163		-0.00024527		 0.00023903		 0.00025246	
O		3.35361540		5.49317914		1.76189908		-0.00023454		-0.00023894		 0.00025528	
O		5.27852297		3.83716911		3.20062127		 0.00025786		 0.00023764		-0.00024808	
O		3.24571413		2.24367431		1.55083198		-0.00010294		 0.00011279		-0.00023924	
O		5.38643690		7.08667490		3.41169226		 0.00009463		-0.00012446		 0.00023618	
O		6.21575580		2.24366750		0.79392970		 0.00009018		 0.00013818		 0.00023411	
O		2.41639134		7.08667685		4.16859454		-0.00008966		-0.00013494		-0.00023394	
O		8.39111780		6.90886110		1.41433301		-0.00012721		 0.00007082		-0.00024938	
O		0.24103517		2.42149591		3.54819123		 0.00010799		-0.00010254		 0.00024290	
O		1.07035408		6.90885038		0.93042965		 0.00011890		 0.00008767		 0.00024591	
O		7.56178429		2.42150663		4.03209167		-0.00009800		-0.00012206		-0.00023867	
O		1.79812589		-0.02447197		5.33139980		 0.00014646		 0.00014456		 0.00012651	
O		6.83402027		9.35481340		-0.36887458		-0.00014817		-0.00014106		-0.00012297	
O		6.00469357		-0.02446905		2.24888797		-0.00014517		 0.00014890		-0.00013045	
O		2.62745161		9.35481534		2.71363919		 0.00014612		-0.00014505		 0.00012604	
O		6.94352177		4.64070020		5.19489985		 0.00013865		 0.00014143		 0.00011979	
O		1.68862537		4.68964999		-0.23237756		-0.00013686		-0.00014906		-0.00012527	
O		0.85930549		4.64069241		2.38538403		-0.00013705		 0.00014544		-0.00012319	
O		7.77284359		4.68965388		2.57713437		 0.00013514		-0.00015318		 0.00012884	
