# total energy = -24709.4254805 eV

CRYSTAL
PRIMVEC
		9.61327310		0.00000000		-1.53811824
		0.00000000		8.82245504		0.00000000
		-2.41334345		0.00000000		5.17235705
PRIMECORD
   40 1
Mg		1.86590615		5.76459536		0.74820170		-0.00028695		 0.00016282		 0.00047065
Mg		5.33402058		3.05786455		2.88603321		 0.00028695		-0.00016282		-0.00047065
Mg		6.54069134		1.35336492		0.29985371		 0.00028695		 0.00016282		-0.00047065
Mg		0.65923540		7.46909499		3.33438119		-0.00028695		-0.00016282		 0.00047065
Mg		1.94596638		0.10675216		0.72151268		 0.00053266		 0.00034205		-0.00011276
Mg		5.25396036		8.71570872		2.91272320		-0.00053266		-0.00034205		 0.00011276
Mg		6.46063208		4.51798163		0.32654370		-0.00053266		 0.00034205		 0.00011276
Mg		0.73929368		4.30447828		3.30769218		 0.00053266		-0.00034205		-0.00011276
Si		-0.27480222		2.99610714		1.46978350		 0.00004721		-0.00018543		 0.00016924
Si		7.47472895		5.82635277		2.16445043		-0.00004721		 0.00018543		-0.00016924
Si		8.68139970		7.40733661		-0.42172809		-0.00004721		-0.00018543		-0.00016924
Si		-1.48147297		1.41512330		4.05596300		 0.00004721		 0.00018543		 0.00016924
Si		4.76831648		7.39057493		0.31971324		 0.00015989		-0.00017474		 0.00035505
Si		2.43161025		1.43188499		3.31452166		-0.00015989		 0.00017474		-0.00035505
Si		3.63828100		2.97934448		0.72834314		-0.00015989		-0.00017474		-0.00035505
Si		3.56164573		5.84311445		2.90589177		 0.00015989		 0.00017474		 0.00035505
O		7.90142509		3.00757658		-0.36489687		 0.00022821		-0.00023333		-0.00063213
O		-0.70149836		5.81488236		3.99913177		-0.00022821		 0.00023333		 0.00063213
O		0.50517337		7.41880702		1.41295325		-0.00022821		-0.00023333		 0.00063213
O		6.69475336		1.40365289		2.22128165		 0.00022821		 0.00023333		-0.00063213
O		0.42842030		4.41652268		1.46687258		 0.00005387		-0.00023099		-0.00062303
O		6.77150643		4.40593723		2.16736233		-0.00005387		 0.00023099		 0.00062303
O		7.97817815		0.00529321		-0.41881717		-0.00005387		-0.00023099		 0.00062303
O		-0.77825239		8.81716670		4.05305207		 0.00005387		 0.00023099		-0.00062303
O		-0.47382298		2.47911093		3.00593809		 0.00006691		-0.00023651		 0.00016710
O		7.67374971		6.34334898		0.62829682		-0.00006691		 0.00023651		-0.00016710
O		6.46707896		6.89034137		3.21447631		-0.00006691		-0.00023651		-0.00016710
O		0.73284777		1.93211854		0.41975859		 0.00006691		 0.00023651		 0.00016710
O		3.29294283		7.39233901		0.08624424		-0.00053040		-0.00061020		 0.00011346
O		3.90698390		1.43012091		3.54799066		 0.00053040		 0.00061020		-0.00011346
O		5.11365465		2.98110856		0.96181214		 0.00053040		-0.00061020		-0.00011346
O		2.08627208		5.84135037		2.67242277		-0.00053040		 0.00061020		 0.00011346
O		5.16265558		8.61424977		1.08176375		 0.00005920		-0.00025735		-0.00011310
O		2.03727115		0.20821014		2.55247116		-0.00005920		 0.00025735		 0.00011310
O		3.24394288		4.20301933		-0.03370834		-0.00005920		-0.00025735		 0.00011310
O		3.95598385		4.61943961		3.66794325		 0.00005920		 0.00025735		-0.00011310
O		4.72643613		6.13160971		1.38943413		-0.00041679		 0.00008508		 0.00009757
O		2.47349060		2.69085020		2.24480078		 0.00041679		-0.00008508		-0.00009757
O		3.68016135		1.72038024		-0.34137775		 0.00041679		 0.00008508		-0.00009757
O		3.51976441		7.10208064		3.97561265		-0.00041679		-0.00008508		 0.00009757
