# total energy = -24716.3806962 eV

CRYSTAL
PRIMVEC
		9.61327030		0.00000000		0.38453043
		0.00000000		8.82245646		0.00000000
		-1.43094424		0.00000000		4.84687480
PRIMECORD
   40 1
Mg		2.08075622		5.76459581		1.15575888		 0.00013341		 0.00033502		-0.00019918
Mg		6.10156503		3.05786450		4.07564442		-0.00013341		-0.00033502		 0.00019918
Mg		6.81704004		1.35336469		1.65220798		-0.00013341		 0.00033502		 0.00019918
Mg		1.36528121		7.46909466		3.57919628		 0.00013341		-0.00033502		-0.00019918
Mg		2.15796632		0.10675222		1.14462551		 0.00037675		-0.00064701		 0.00005679
Mg		6.02435396		8.71570905		4.08677780		-0.00037675		 0.00064701		-0.00005679
Mg		6.73982897		4.51798237		1.66334136		-0.00037675		-0.00064701		-0.00005679
Mg		1.44249228		4.30447793		3.56806195		 0.00037675		 0.00064701		 0.00005679
Si		0.01785265		2.99610661		1.46164857		-0.00007919		-0.00008565		 0.00013776
Si		8.16446764		5.82635273		3.76975474		 0.00007919		 0.00008565		-0.00013776
Si		8.87994168		7.40733677		1.34631830		 0.00007919		-0.00008565		-0.00013776
Si		-0.69762140		1.41512258		3.88508501		-0.00007919		 0.00008565		 0.00013776
Si		4.99053494		7.39057514		1.30893126		 0.00068332		 0.00003695		-0.00021949
Si		3.19178631		1.43188517		3.92247205		-0.00068332		-0.00003695		 0.00021949
Si		3.90726035		2.97934498		1.49903561		-0.00068332		 0.00003695		 0.00021949
Si		4.27506089		5.84311533		3.73236770		 0.00068332		-0.00003695		-0.00021949
O		8.08601739		3.00757672		1.24492303		 0.00024131		-0.00032645		-0.00018173
O		0.09630386		5.81488263		3.98648028		-0.00024131		 0.00032645		 0.00018173
O		0.81177791		7.41880687		1.56304384		-0.00024131		-0.00032645		 0.00018173
O		7.37054334		1.40365343		3.66835851		 0.00024131		 0.00032645		-0.00018173
O		0.74357205		4.41652264		1.60298236		-0.00031480		-0.00013019		 0.00012236
O		7.43874919		4.40593670		3.62842191		 0.00031480		 0.00013019		-0.00012236
O		8.15422420		0.00529345		1.20498644		 0.00031480		-0.00013019		-0.00012236
O		0.02809704		8.81716686		4.02641783		-0.00031480		 0.00013019		 0.00012236
O		0.12759795		2.47911100		3.00740066		-0.00018999		 0.00046647		 0.00032008
O		8.05472330		6.34334931		2.22400265		 0.00018999		-0.00046647		-0.00032008
O		7.33924829		6.89034211		4.64743909		 0.00018999		 0.00046647		-0.00032008
O		0.84307296		1.93211916		0.58396422		-0.00018999		-0.00046647		 0.00032008
O		3.41878799		7.39233866		0.76496810		 0.00030165		-0.00062175		 0.00055493
O		4.76353326		1.43012069		4.46643617		-0.00030165		 0.00062175		-0.00055493
O		5.47900827		2.98110850		2.04299877		-0.00030165		-0.00062175		-0.00055493
O		2.70331298		5.84135084		3.18840358		 0.00030165		 0.00062175		 0.00055493
O		5.55423838		8.61425028		2.17694751		-0.00018901		-0.00051024		-0.00002129
O		2.62808286		0.20821003		3.05445580		 0.00018901		 0.00051024		 0.00002129
O		3.34355787		4.20302013		0.63101936		 0.00018901		-0.00051024		 0.00002129
O		4.83876337		4.61944018		4.60038395		-0.00018901		 0.00051024		-0.00002129
O		5.16684283		6.13161032		2.40518741		 0.00018232		-0.00017576		-0.00073294
O		3.01547841		2.69084999		2.82621686		-0.00018232		 0.00017576		 0.00073294
O		3.73095150		1.72038016		0.40278138		-0.00018232		-0.00017576		 0.00073294
O		4.45136879		7.10208111		4.82862289		 0.00018232		 0.00017576		-0.00073294
