# total energy = -24711.8604502 eV

CRYSTAL
PRIMVEC
		9.61327117		0.00000000		-1.15359022
		0.00000000		8.82245504		0.00000000
		-2.21686452		0.00000000		5.10726423
PRIMECORD
   40 1
Mg		1.90887641		5.76459619		0.82971355		-0.00006396		-0.00012494		 0.00088724
Mg		5.48753024		3.05786466		3.12395465		 0.00006396		 0.00012494		-0.00088724
Mg		6.59596153		1.35336480		0.57032544		 0.00006396		-0.00012494		-0.00088724
Mg		0.80044415		7.46909508		3.38334373		-0.00006396		 0.00012494		 0.00088724
Mg		1.98836565		0.10675151		0.80613537		 0.00019202		-0.00022694		-0.00017692
Mg		5.40804004		8.71570837		3.14753380		-0.00019202		 0.00022694		 0.00017692
Mg		6.51647133		4.51798194		0.59390265		-0.00019202		-0.00022694		 0.00017692
Mg		0.87993435		4.30447794		3.35976555		 0.00019202		 0.00022694		-0.00017692
Si		-0.21627118		2.99610651		1.46815741		-0.00025049		 0.00037709		 0.00004992
Si		7.61267686		5.82635241		2.48551176		 0.00025049		-0.00037709		-0.00004992
Si		8.72110912		7.40733693		-0.06811938		 0.00025049		 0.00037709		-0.00004992
Si		-1.32470344		1.41512295		4.02178662		-0.00025049		-0.00037709		 0.00004992
Si		4.81276057		7.39057504		0.51755724		-0.00013724		-0.00010428		 0.00001645
Si		2.58364511		1.43188484		3.43611193		 0.00013724		 0.00010428		-0.00001645
Si		3.69207641		2.97934462		0.88248175		 0.00013724		-0.00010428		-0.00001645
Si		3.70432928		5.84311526		3.07118645		-0.00013724		 0.00010428		 0.00001645
O		7.93834377		3.00757705		-0.04293298		-0.00010111		-0.00014404		 0.00045761
O		-0.54193808		5.81488283		3.99660118		 0.00010111		 0.00014404		-0.00045761
O		0.56649418		7.41880651		1.44297100		 0.00010111		-0.00014404		-0.00045761
O		6.82991151		1.40365337		2.51069817		-0.00010111		 0.00014404		 0.00045761
O		0.49145006		4.41652274		1.49409515		 0.00044378		-0.00016197		 0.00008437
O		6.90495563		4.40593714		2.45957401		-0.00044378		 0.00016197		-0.00008437
O		8.01338789		0.00529328		-0.09405713		-0.00044378		-0.00016197		-0.00008437
O		-0.61698220		8.81716660		4.04772630		 0.00044378		 0.00016197		 0.00008437
O		-0.35353917		2.47911083		3.00623025		 0.00015153		-0.00045077		 0.00009565
O		7.74994485		6.34334905		0.94743795		-0.00015153		 0.00045077		-0.00009565
O		6.64151259		6.89034223		3.50106909		-0.00015153		-0.00045077		-0.00009565
O		0.75489309		1.93211862		0.45260008		 0.00015153		 0.00045077		 0.00009565
O		3.31811159		7.39233914		0.22198854		 0.00019759		 0.00016508		-0.00022403
O		4.07829409		1.43012074		3.73167966		-0.00019759		-0.00016508		 0.00022403
O		5.18672538		2.98110872		1.17804852		-0.00019759		 0.00016508		 0.00022403
O		2.20968030		5.84135116		2.77561968		 0.00019759		-0.00016508		-0.00022403
O		5.24097206		8.61425013		1.30080090		-0.00021477		-0.00021487		 0.00056131
O		2.15543363		0.20820975		2.65286827		 0.00021477		 0.00021487		-0.00056131
O		3.26386589		4.20301971		0.09923810		 0.00021477		-0.00021487		-0.00056131
O		4.13253980		4.61944017		3.85443107		-0.00021477		 0.00021487		 0.00056131
O		4.81451790		6.13161012		1.59258481		-0.00023240		-0.00001003		 0.00003761
O		2.58188779		2.69084976		2.36108436		 0.00023240		 0.00001003		-0.00003761
O		3.69032005		1.72037970		-0.19254582		 0.00023240		-0.00001003		-0.00003761
O		3.70608467		7.10208115		4.14621499		-0.00023240		 0.00001003		 0.00003761
