# total energy = -24704.6461838 eV

CRYSTAL
PRIMVEC
		9.20099977		0.00000000		0.00000000
		0.00000000		8.62099635		-1.37935868
		-0.97849872		-0.76951641		4.80947299
PRIMECORD
   40 1
Si		2.54259968		0.62630009		0.88954898		 0.00033324		 0.00028647		 0.00023009
Si		5.67990229		7.22518444		2.54056166		-0.00033324		-0.00028647		-0.00023009
Si		6.16915073		0.56658560		1.26276361		-0.00012780		 0.00015013		 0.00017289
Si		2.05335124		7.28489985		2.16734702		 0.00012780		-0.00015013		-0.00017289
Si		7.14309956		4.93680011		0.19986872		 0.00023970		 0.00030120		 0.00016484
Si		1.07940241		2.91468535		3.23024192		-0.00023970		-0.00030120		-0.00016484
Si		1.56865085		4.87708562		0.57308427		-0.00013341		 0.00037123		 0.00000382
Si		6.65385112		2.97439892		2.85702728		 0.00013341		-0.00037123		-0.00000382
Mg		-0.24462422		7.61566107		-0.04691866		 0.00013495		-0.00016205		 0.00002788
Mg		-0.73387266		0.23582438		3.47702929		-0.00013495		 0.00016205		-0.00002788
Mg		4.35587567		3.30516106		0.64276068		 0.00015442		-0.00018026		 0.00002871
Mg		3.86662722		4.54632348		2.78734903		-0.00015442		 0.00018026		-0.00002871
Mg		-0.24462422		2.17149851		0.82414735		 0.00038730		-0.00010123		-0.00001775
Mg		-0.73387266		5.67998602		2.60596328		-0.00038730		 0.00010123		 0.00001775
Mg		4.35587567		6.48199853		0.13446709		 0.00038570		-0.00009773		-0.00001973
Mg		3.86662722		1.36948509		3.29564262		-0.00038570		 0.00009773		 0.00001973
O		0.98190953		0.68099728		0.54244310		-0.00001603		 0.00008237		-0.00001004
O		7.24059152		7.17048818		2.88766753		 0.00001603		-0.00008237		 0.00001004
O		7.72984088		0.51016415		1.61014460		-0.00020514		 0.00011227		-0.00019617
O		0.49266109		7.34131946		1.81996512		 0.00020514		-0.00011227		 0.00019617
O		5.58241126		4.99149729		-0.14723716		 0.00001713		 0.00010324		 0.00002900
O		2.64009163		2.85998816		3.57734779		-0.00001713		-0.00010324		-0.00002900
O		3.12934099		4.82066509		0.92046526		-0.00020085		 0.00011859		-0.00017179
O		5.09316190		3.03082037		2.50964538		 0.00020085		-0.00011859		 0.00017179
O		3.13727133		1.76593777		1.43733970		 0.00033487		-0.00037037		 0.00032557
O		5.08523064		6.08554769		1.99277093		-0.00033487		 0.00037037		-0.00032557
O		5.57448000		1.94600409		0.31192401		 0.00010320		 0.00058241		-0.00016096
O		2.64802197		5.90548044		3.11818662		-0.00010320		-0.00058241		 0.00016096
O		7.73777122		6.07643686		0.74766036		 0.00037690		-0.00041366		 0.00030319
O		0.48473075		1.77504675		2.68245119		-0.00037690		 0.00041366		-0.00030319
O		0.97398011		6.25650411		-0.37775625		 0.00017419		 0.00037928		-0.00009723
O		7.24852278		1.59498135		3.80786688		-0.00017419		-0.00037928		 0.00009723
O		2.38943063		-0.17563880		4.31611078		-0.00041911		-0.00013481		 0.00000603
O		5.83307042		8.02712426		-0.88600015		 0.00041911		 0.00013481		-0.00000603
O		5.34382197		0.07830143		2.72898525		 0.00003694		-0.00040351		-0.00008562
O		2.87867999		7.77318403		0.70112538		-0.00003694		 0.00040351		 0.00008562
O		6.98993144		4.13486121		3.62643052		-0.00042366		-0.00013822		 0.00004573
O		1.23257053		3.71662424		-0.19631989		 0.00042366		 0.00013822		-0.00004573
O		0.74332209		4.38880052		2.03930499		 0.00000198		-0.00042797		-0.00000968
O		7.47918080		3.46268401		1.39080472		-0.00000198		 0.00042797		 0.00000968
