# total energy = -24704.641074 eV

CRYSTAL
PRIMVEC
		9.20099977		0.00000000		0.00000000
		0.00000000		8.62099635		1.37935868
		-0.97849872		0.76951641		4.80947299
PRIMECORD
   40 1
Si		2.54259968		0.95134289		1.14197197		 0.00052573		-0.00022501		-0.00032157
Si		5.67990229		8.43917263		5.04685879		-0.00052573		 0.00022501		 0.00032157
Si		6.16915073		1.01105830		1.51518660		 0.00196246		-0.00022282		 0.00044341
Si		2.05335124		8.37945814		4.67364415		-0.00196246		 0.00022282		-0.00044341
Si		7.14309956		5.26184291		1.83165223		 0.00030671		-0.00043733		-0.00055835
Si		1.07940241		4.12867170		4.35717853		-0.00030671		 0.00043733		 0.00055835
Si		1.56865085		5.32155832		2.20486686		 0.00167560		-0.00011343		 0.00018475
Si		6.65385112		4.06895813		3.98396389		-0.00167560		 0.00011343		-0.00018475
Mg		-0.24462422		8.00041836		2.45165423		-0.00042272		-0.00096720		 0.00035602
Mg		-0.73387266		1.39009717		3.73717560		 0.00042272		 0.00096720		-0.00035602
Mg		4.35587567		3.68991926		1.76197397		-0.00043330		-0.00085404		 0.00044461
Mg		3.86662722		5.70059718		4.42685586		 0.00043330		 0.00085404		-0.00044461
Mg		-0.24462422		2.55625672		1.58058823		 0.00010641		-0.00014257		 0.00065234
Mg		-0.73387266		6.83425880		4.60824161		-0.00010641		 0.00014257		-0.00065234
Mg		4.35587567		6.86675674		2.27026757		 0.00072166		 0.00008279		 0.00090640
Mg		3.86662722		2.52375787		3.91856227		-0.00072166		-0.00008279		-0.00090640
O		0.98190953		0.89492236		0.79459006		 0.00031698		 0.00012015		-0.00032071
O		7.24059152		8.49559316		5.39424069		-0.00031698		-0.00012015		 0.00032071
O		7.72984088		1.06575364		1.86229155		 0.00049549		 0.00003956		-0.00042129
O		0.49266109		8.32476096		4.32653828		-0.00049549		-0.00003956		 0.00042129
O		5.58241126		5.20542146		1.48427032		 0.00046030		 0.00035083		-0.00020233
O		2.64009163		4.18509315		4.70456043		-0.00046030		-0.00035083		 0.00020233
O		3.12934099		5.37625458		2.55197181		 0.00054701		 0.00028979		-0.00033155
O		5.09316190		4.01426095		3.63685802		-0.00054701		-0.00028979		 0.00033155
O		3.13727133		2.33076230		2.09281156		-0.00009834		 0.00053893		-0.00236596
O		5.08523064		7.05975415		4.09601919		 0.00009834		-0.00053893		 0.00236596
O		5.57448000		2.15069505		0.96739496		 0.00011508		-0.00044380		 0.00166294
O		2.64802197		7.23982047		5.22143488		-0.00011508		 0.00044380		-0.00166294
O		7.73777122		6.64126139		2.78249182		 0.00023553		 0.00065767		-0.00203987
O		0.48473075		2.74925413		3.40633893		-0.00023553		-0.00065767		 0.00203987
O		0.97398011		6.46119507		1.65707522		-0.00005274		-0.00066893		 0.00144141
O		7.24852278		2.92931954		4.53175462		 0.00005274		 0.00066893		-0.00144141
O		2.38943063		1.23257421		4.48521964		 0.00059362		-0.00075910		-0.00000746
O		5.83307042		8.15794223		1.70361019		-0.00059362		 0.00075910		 0.00000746
O		5.34382197		0.97863398		2.89809502		 0.00084079		-0.00023039		 0.00010492
O		2.87867999		8.41188155		3.29073573		-0.00084079		 0.00023039		-0.00010492
O		6.98993144		5.54307423		5.17489990		 0.00062597		-0.00070107		 0.00020893
O		1.23257053		3.84744222		1.01392993		-0.00062597		 0.00070107		-0.00020893
O		0.74332209		5.28913399		3.58777528		 0.00082631		-0.00012245		 0.00011134
O		7.47918080		4.10138153		2.60105639		-0.00082631		 0.00012245		-0.00011134
