# total energy = -24714.7481094 eV

CRYSTAL
PRIMVEC
		9.20099977		0.00000000		0.00000000
		0.00000000		8.62099635		-0.34484427
		-0.97849872		-0.19237450		4.80947299
PRIMECORD
   40 1
Si		2.54259968		0.74819126		0.98420702		 0.00025555		 0.00025602		 0.00009056
Si		5.67990229		7.68042967		3.48042262		-0.00025555		-0.00025602		-0.00009056
Si		6.16915073		0.73326264		1.35742166		 0.00039309		 0.00007657		-0.00019326
Si		2.05335124		7.69535921		3.10720799		-0.00039309		-0.00007657		 0.00019326
Si		7.14309956		5.05869127		0.81178673		 0.00017562		 0.00020346		 0.00004879
Si		1.07940241		3.36992965		3.65284291		-0.00017562		-0.00020346		-0.00004879
Si		1.56865085		5.04376265		1.18500228		 0.00045564		 0.00004423		-0.00016461
Si		6.65385112		3.38485920		3.27962828		-0.00045564		-0.00004423		 0.00016461
Mg		-0.24462422		7.75994471		0.89004583		 0.00067286		-0.00023500		 0.00015142
Mg		-0.73387266		0.66867622		3.57458381		-0.00067286		 0.00023500		-0.00015142
Mg		4.35587567		3.44944469		1.06246613		 0.00067250		-0.00023040		 0.00015122
Mg		3.86662722		4.97917623		3.40216352		-0.00067250		 0.00023040		-0.00015122
Mg		-0.24462422		2.31578399		1.10781233		-0.00072770		 0.00039185		-0.00054523
Mg		-0.73387266		6.11283786		3.35681823		 0.00072770		-0.00039185		 0.00054523
Mg		4.35587567		6.62628309		0.93539204		-0.00072727		 0.00038669		-0.00054456
Mg		3.86662722		1.80233784		3.52923760		 0.00072727		-0.00038669		 0.00054456
O		0.98190953		0.76121895		0.63699810		 0.00009158		 0.00012849		-0.00031304
O		7.24059152		7.66740197		3.82763155		-0.00009158		-0.00012849		 0.00031304
O		7.72984088		0.71851067		1.70469959		 0.00004610		-0.00015083		 0.00009971
O		0.49266109		7.71011117		2.75993005		-0.00004610		 0.00015083		-0.00009971
O		5.58241126		5.07171897		0.46457780		 0.00014353		 0.00013373		-0.00030046
O		2.64009163		3.35690288		4.00005184		-0.00014353		-0.00013373		 0.00030046
O		3.12934099		5.02901069		1.53228022		-0.00000004		-0.00014692		 0.00009012
O		5.09316190		3.39961116		2.93235035		 0.00000004		 0.00014692		-0.00009012
O		3.13727133		1.97774662		1.68314165		 0.00010868		-0.00008166		-0.00054079
O		5.08523064		6.45087523		2.78148891		-0.00010868		 0.00008166		 0.00054079
O		5.57448000		2.02276251		0.55772596		 0.00011731		 0.00000946		-0.00018546
O		2.64802197		6.40585749		3.90690460		-0.00011731		-0.00000946		 0.00018546
O		7.73777122		6.28824663		1.51072227		 0.00014252		-0.00002714		-0.00051157
O		0.48473075		2.14037521		2.95390921		-0.00014252		 0.00002714		 0.00051157
O		0.97398011		6.33326253		0.38530567		 0.00009411		 0.00004664		-0.00020380
O		7.24852278		2.09535840		4.07932490		-0.00009411		-0.00004664		 0.00020380
O		2.38943063		0.35244062		4.37952684		 0.00001866		 0.00017338		-0.00069213
O		5.83307042		8.07618123		0.08510373		-0.00001866		-0.00017338		 0.00069213
O		5.34382197		0.41592567		2.79240130		 0.00007286		 0.00015985		-0.00028730
O		2.87867999		8.01269617		1.67222926		-0.00007286		-0.00015985		 0.00028730
O		6.98993144		4.66294063		4.20710654		 0.00003076		 0.00018018		-0.00068827
O		1.23257053		3.76568122		0.25752402		-0.00003076		-0.00018018		 0.00068827
O		0.74332209		4.72642569		2.61998100		 0.00006159		 0.00016404		-0.00029037
O		7.47918080		3.70219616		1.84464864		-0.00006159		-0.00016404		 0.00029037
