# total energy = -24712.0124312 eV

CRYSTAL
PRIMVEC
		9.20099977		0.00000000		0.00000000
		0.00000000		8.62099635		-0.68967934
		-0.97849872		-0.38475821		4.80947299
PRIMECORD
   40 1
Si		2.54259968		0.70756056		0.95265403		 0.00011653		 0.00048000		-0.00014931
Si		5.67990229		7.52868218		3.16713594		-0.00011653		-0.00048000		 0.00014931
Si		6.16915073		0.67770424		1.32586867		 0.00048509		 0.00014335		-0.00013702
Si		2.05335124		7.55853850		2.79392130		-0.00048509		-0.00014335		 0.00013702
Si		7.14309956		5.01806058		0.60781436		 0.00055176		 0.00077676		 0.00007639
Si		1.07940241		3.21818216		3.51197561		-0.00055176		-0.00077676		-0.00007639
Si		1.56865085		4.98820425		0.98102900		 0.00020877		 0.00025592		-0.00024484
Si		6.65385112		3.24803849		3.13876097		-0.00020877		-0.00025592		 0.00024484
Mg		-0.24462422		7.71185108		0.57772433		 0.00046063		 0.00014244		 0.00045359
Mg		-0.73387266		0.52439166		3.54206564		-0.00046063		-0.00014244		-0.00045359
Mg		4.35587567		3.40135107		0.92256400		 0.00045952		 0.00012137		 0.00045777
Mg		3.86662722		4.83489167		3.19722597		-0.00045952		-0.00012137		-0.00045777
Mg		-0.24462422		2.26768852		1.01325734		-0.00079541		 0.00062875		-0.00026357
Mg		-0.73387266		5.96855422		3.10653263		 0.00079541		-0.00062875		 0.00026357
Mg		4.35587567		6.57818854		0.66841675		-0.00080007		 0.00065421		-0.00026481
Mg		3.86662722		1.65805420		3.45137322		 0.00080007		-0.00065421		 0.00026481
O		0.98190953		0.73447809		0.60548007		 0.00049416		-0.00001726		-0.00069664
O		7.24059152		7.50176373		3.51431082		-0.00049416		 0.00001726		 0.00069664
O		7.72984088		0.64906153		1.67318157		 0.00022591		-0.00046084		-0.00008284
O		0.49266109		7.58717938		2.44660749		-0.00022591		 0.00046084		 0.00008284
O		5.58241126		5.04497810		0.26064040		 0.00023146		-0.00003799		-0.00075938
O		2.64009163		3.19126372		3.85915049		-0.00023146		 0.00003799		 0.00075938
O		3.12934099		4.95956154		1.32834190		 0.00042812		-0.00047443		-0.00004042
O		5.09316190		3.27668120		2.79144808		-0.00042812		 0.00047443		 0.00004042
O		3.13727133		1.90714367		1.60120767		 0.00031269		-0.00022171		-0.00050942
O		5.08523064		6.32909907		2.51858323		-0.00031269		 0.00022171		 0.00050942
O		5.57448000		1.99717729		0.47579198		 0.00029333		-0.00000063		-0.00010499
O		2.64802197		6.23906545		3.64399891		-0.00029333		 0.00000063		 0.00010499
O		7.73777122		6.21764276		1.25636800		 0.00013609		-0.00051807		-0.00067650
O		0.48473075		2.01859906		2.86342290		-0.00013609		 0.00051807		 0.00067650
O		0.97398011		6.30767639		0.13095231		 0.00037785		-0.00012817		-0.00003727
O		7.24852278		1.92856636		3.98883858		-0.00037785		 0.00012817		 0.00003727
O		2.38943063		0.17641445		4.35838754		-0.00023411		-0.00027102		-0.00086909
O		5.83307042		8.05982921		-0.23859757		 0.00023411		 0.00027102		 0.00086909
O		5.34382197		0.30338365		2.77126292		-0.00024584		-0.00003218		-0.00039258
O		2.87867999		7.93285910		1.34852797		 0.00024584		 0.00003218		 0.00039258
O		6.98993144		4.48691354		4.01354787		-0.00028347		-0.00029387		-0.00087907
O		1.23257053		3.74932828		0.10624210		 0.00028347		 0.00029387		 0.00087907
O		0.74332209		4.61388366		2.42642325		-0.00019783		-0.00004404		-0.00038492
O		7.47918080		3.62235816		1.69336764		 0.00019783		 0.00004404		 0.00038492
