# total energy = -12347.4475886 eV	

CRYSTAL	
PRIMVEC	
		4.44490009		0.00000000		0.00000000	
		0.00000000		4.66479819		0.18659246	
		0.00000000		0.25817758		6.45439942	
PRIMCOORD
   20 1	
O		0.47515982		2.28265622		1.70232517		 0.00018885		 0.00031110		 0.00018944	
O		3.96974027		2.64031999		4.93866804		-0.00018885		-0.00031110		-0.00018944	
O		2.69760987		0.30792001		4.84537226		 0.00018885		-0.00031110		-0.00018944	
O		1.74729023		4.61505709		1.79562096		-0.00018885		 0.00031110		 0.00018944	
O		0.83697513		1.04962582		3.66419829		 0.00036384		-0.00012365		-0.00001804	
O		3.60792496		3.87335128		2.97679404		-0.00036384		 0.00012365		 0.00001804	
O		3.05942518		1.54095085		2.88349826		 0.00036384		 0.00012365		 0.00001804	
O		1.38547491		3.38202625		3.75749407		-0.00036384		-0.00012365		-0.00001804	
O		3.60792496		3.77632800		0.55122984		-0.00018112		-0.00028854		-0.00054429	
O		0.83697513		1.14664821		6.08976204		 0.00018112		 0.00028854		 0.00054429	
O		1.38547491		3.47904819		6.18305827		-0.00018112		 0.00028854		 0.00054429	
O		3.05942518		1.44392802		0.45793405		 0.00018112		-0.00028854		-0.00054429	
Mg		2.30334723		2.77805811		1.72214098		-0.00026592		-0.00017094		 0.00007132	
Mg		2.14155286		2.14491810		4.91885090		 0.00026592		 0.00017094		-0.00007132	
Mg		0.08089718		4.47731808		5.01214713		-0.00026592		 0.00017094		-0.00007132	
Mg		4.36400291		0.44565813		1.62884520		 0.00026592		-0.00017094		 0.00007132	
Si		2.22245005		0.12908790		3.22720015		-0.00000000		0.00000000		0.00000000	
Si		0.00000000		2.46148788		3.32049594		-0.00000000		0.00000000		0.00000000	
Si		2.22245005		0.00000000		0.00000000		0.00000000		0.00000000		-0.00000000	
Si		0.00000000		2.33239998		0.09329579		0.00000000		0.00000000		0.00000000	
