# total energy = -12340.0554053 eV	

CRYSTAL	
PRIMVEC	
		4.44490009		0.00000000		0.00000000	
		0.00000000		4.66479819		0.55977738	
		0.00000000		0.77452829		6.45439942	
PRIMCOORD
   20 1	
O		0.47515982		2.41174412		1.87977403		-0.00010960		 0.00016304		-0.00024603	
O		3.96974027		3.02758414		5.13440322		 0.00010960		-0.00016304		 0.00024603	
O		2.69760987		0.69518415		4.85451497		-0.00010960		-0.00016304		 0.00024603	
O		1.74729023		4.74414499		2.15966183		 0.00010960		 0.00016304		-0.00024603	
O		0.83697513		1.33986713		3.73655904		-0.00062784		-0.00021163		-0.00088421	
O		3.60792496		4.09946113		3.27761688		 0.00062784		 0.00021163		 0.00088421	
O		3.05942518		1.76706114		2.99772908		-0.00062784		 0.00021163		 0.00088421	
O		1.38547491		3.67226711		4.01644728		 0.00062784		-0.00021163		-0.00088421	
O		3.60792496		3.80839396		0.85205401		-0.00055649		 0.00021862		 0.00071098	
O		0.83697513		1.63093519		6.16212235		 0.00055649		-0.00021862		-0.00071098	
O		1.38547491		3.96333517		6.44201015		-0.00055649		-0.00021862		-0.00071098	
O		3.05942518		1.47599397		0.57216621		 0.00055649		 0.00021862		 0.00071098	
Mg		2.30334723		2.90714601		1.93922190		-0.00010297		-0.00034138		 0.00003927	
Mg		2.14155286		2.53218224		5.07495401		 0.00010297		 0.00034138		-0.00003927	
Mg		0.08089718		4.86458223		5.35484226		-0.00010297		 0.00034138		-0.00003927	
Mg		4.36400291		0.57474603		1.65933410		 0.00010297		-0.00034138		 0.00003927	
Si		2.22245005		0.38726414		3.22720015		0.00000000		-0.00000000		0.00000000	
Si		0.00000000		2.71966413		3.50708796		0.00000000		0.00000000		0.00000000	
Si		2.22245005		0.00000000		0.00000000		0.00000000		0.00000000		0.00000000	
Si		0.00000000		2.33239998		0.27988780		0.00000000		0.00000000		-0.00000000	
