# total energy = -12344.6674684 eV	

CRYSTAL	
PRIMVEC	
		4.44490009		0.00000000		0.00000000	
		0.00000000		4.66479819		0.37318492	
		0.00000000		0.51635071		6.45439942	
PRIMCOORD
   20 1	
O		0.47515982		2.34720017		1.79104893		-0.00028405		 0.00016074		 0.00016083	
O		3.96974027		2.83395184		5.03653496		 0.00028405		-0.00016074		-0.00016083	
O		2.69760987		0.50155186		4.84994295		-0.00028405		-0.00016074		-0.00016083	
O		1.74729023		4.67960104		1.97764095		 0.00028405		 0.00016074		 0.00016083	
O		0.83697513		1.19474603		3.70037888		 0.00010023		-0.00046405		-0.00007762	
O		3.60792496		3.98640598		3.12720502		-0.00010023		 0.00046405		 0.00007762	
O		3.05942518		1.65400600		2.94061300		 0.00010023		 0.00046405		 0.00007762	
O		1.38547491		3.52714601		3.88697090		-0.00010023		-0.00046405		-0.00007762	
O		3.60792496		3.79236120		0.70164215		 0.00011816		-0.00026149		-0.00079359	
O		0.83697513		1.38879081		6.12594219		-0.00011816		 0.00026149		 0.00079359	
O		1.38547491		3.72119124		6.31253421		 0.00011816		 0.00026149		 0.00079359	
O		3.05942518		1.45996122		0.51505013		-0.00011816		-0.00026149		-0.00079359	
Mg		2.30334723		2.84260206		1.83068100		 0.00005056		 0.00011070		-0.00011752	
Mg		2.14155286		2.33854995		4.99690290		-0.00005056		-0.00011070		 0.00011752	
Mg		0.08089718		4.67094993		5.18349492		 0.00005056		-0.00011070		 0.00011752	
Mg		4.36400291		0.51020208		1.64408898		-0.00005056		 0.00011070		-0.00011752	
Si		2.22245005		0.25817580		3.22720015		0.00000000		0.00000000		0.00000000	
Si		0.00000000		2.59057623		3.41379217		0.00000000		0.00000000		0.00000000	
Si		2.22245005		0.00000000		0.00000000		0.00000000		0.00000000		0.00000000	
Si		0.00000000		2.33239998		0.18659202		0.00000000		0.00000000		0.00000000	
