# total energy = -12347.4475886 eV

CRYSTAL
PRIMVEC
		4.44490009		0.00000000		0.00000000
		0.00000000		4.66479819		-0.18659246
		0.00000000		-0.25817758		6.45439942
PRIMECORD
   20 1
O		0.47515982		2.15356787		1.52487587		 0.00018862		 0.00031102		-0.00018919
O		3.96974027		2.25305585		4.74293331		-0.00018862		-0.00031102		 0.00018919
O		2.69760987		-0.07934413		4.83622910		 0.00018862		-0.00031102		 0.00018919
O		1.74729023		4.48596919		1.43158009		-0.00018862		 0.00031102		-0.00018919
O		0.83697513		0.75938407		3.59183798		 0.00018115		 0.00028849		-0.00054423
O		3.60792496		3.64724010		2.67596987		-0.00018115		-0.00028849		 0.00054423
O		3.05942518		1.31484012		2.76926610		 0.00018115		-0.00028849		 0.00054423
O		1.38547491		3.09178405		3.49854219		-0.00018115		 0.00028849		-0.00054423
O		3.60792496		3.74426294		0.25040611		-0.00036390		 0.00012380		-0.00001800
O		0.83697513		0.66236123		6.01740218		 0.00036390		-0.00012380		 0.00001800
O		1.38547491		2.99476211		5.92410595		-0.00036390		-0.00012380		 0.00001800
O		3.05942518		1.41186295		0.34370190		 0.00036390		 0.00012380		-0.00001800
Mg		2.30334723		2.64897021		1.50505917		-0.00026566		-0.00017092		-0.00007137
Mg		2.14155286		1.75765396		4.76274912		 0.00026566		 0.00017092		 0.00007137
Mg		0.08089718		4.09005394		4.66945289		-0.00026566		 0.00017092		 0.00007137
Mg		4.36400291		0.31656979		1.59835496		 0.00026566		-0.00017092		-0.00007137
Si		2.22245005		-0.12908790		3.22720015		0.00000000		0.00000000		0.00000000
Si		0.00000000		2.20331208		3.13390392		0.00000000		-0.00000000		-0.00000000
Si		2.22245005		0.00000000		0.00000000		0.00000000		0.00000000		0.00000000
Si		0.00000000		2.33239998		-0.09329579		0.00000000		0.00000000		0.00000000
