# total energy = -12333.8540662 eV

CRYSTAL
PRIMVEC
		4.44490009		0.00000000		0.00000000
		0.00000000		4.66479819		-0.74636984
		0.00000000		-1.03270586		6.45439942
PRIMECORD
   20 1
O		0.47515982		1.95993602		1.25870192		-0.00013952		-0.00038960		 0.00006295
O		3.96974027		1.67215986		4.44932988		 0.00013952		 0.00038960		-0.00006295
O		2.69760987		-0.66024013		4.82251391		-0.00013952		 0.00038960		-0.00006295
O		1.74729023		4.29233690		0.88551789		 0.00013952		-0.00038960		 0.00006295
O		0.83697513		0.32402210		3.48329707		 0.00007882		 0.00020737		 0.00074941
O		3.60792496		3.30807422		2.22473517		-0.00007882		-0.00020737		-0.00074941
O		3.05942518		0.97567424		2.59791920		 0.00007882		-0.00020737		-0.00074941
O		1.38547491		2.65642209		3.11011304		-0.00007882		 0.00020737		 0.00074941
O		3.60792496		3.69616512		-0.20082903		-0.00008136		-0.00045864		 0.00042169
O		0.83697513		-0.06406790		5.90886128		 0.00008136		 0.00045864		-0.00042169
O		1.38547491		2.26833208		5.53567724		-0.00008136		 0.00045864		-0.00042169
O		3.05942518		1.36376424		0.17235500		 0.00008136		-0.00045864		 0.00042169
Mg		2.30334723		2.45533792		1.17943824		-0.00015301		 0.00005621		-0.00064957
Mg		2.14155286		1.17675796		4.52859401		 0.00015301		-0.00005621		 0.00064957
Mg		0.08089718		3.50915795		4.15540997		-0.00015301		-0.00005621		 0.00064957
Mg		4.36400291		0.12293794		1.55262183		 0.00015301		 0.00005621		-0.00064957
Si		2.22245005		-0.51635204		3.22720015		0.00000000		0.00000000		0.00000000
Si		0.00000000		1.81604794		2.85401612		0.00000000		0.00000000		0.00000000
Si		2.22245005		0.00000000		0.00000000		0.00000000		0.00000000		0.00000000
Si		0.00000000		2.33239998		-0.37318403		0.00000000		0.00000000		0.00000000
