# total energy = -20634.2377988 eV

CRYSTAL
PRIMVEC
		9.29624955		0.00000000		0.00000000
		0.00000000		5.74999994		0.00000000
		0.00000000		0.00000000		4.86999836
PRIMECORD
   28 1
Si		3.09565110		0.00000000		4.37666871		-0.00005696		-0.00000000		 0.00036519
Si		6.20059845		0.00000000		0.49333058		 0.00005696		-0.00000000		-0.00036519
Si		7.74377588		2.87499997		4.37666871		-0.00005829		0.00000000		 0.00036037
Si		1.55247368		2.87499997		0.49333058		 0.00005829		0.00000000		-0.00036037
Mg		0.00000000		0.00000000		0.00000000		0.00000000		0.00000000		0.00000000
Mg		4.64812478		2.87499997		0.00000000		0.00000000		0.00000000		0.00000000
Mg		4.64812478		0.00000000		2.43500011		0.00000000		0.00000000		0.00000000
Mg		0.00000000		2.87499997		2.43500011		0.00000000		0.00000000		0.00000000
Mg		2.32406332		1.43749952		2.43500011		 0.00000003		 0.00000012		-0.00000033
Mg		6.97218809		4.31249949		2.43500011		-0.00000003		-0.00000012		 0.00000033
Mg		6.97218809		1.43749952		2.43500011		-0.00000003		 0.00000012		 0.00000033
Mg		2.32406332		4.31249949		2.43500011		 0.00000003		-0.00000012		-0.00000033
O		7.61734781		0.00000000		1.08113988		 0.00000331		0.00000000		-0.00028210
O		1.67890267		0.00000000		3.78885941		-0.00000331		0.00000000		 0.00028210
O		2.96922211		2.87499997		1.08113988		 0.00000144		-0.00000000		-0.00028270
O		6.32702744		2.87499997		3.78885941		-0.00000144		-0.00000000		 0.00028270
O		3.10587698		0.00000000		1.14591057		 0.00075213		0.00000000		 0.00035565
O		6.19037258		0.00000000		3.72408873		-0.00075213		0.00000000		-0.00035565
O		7.75400175		2.87499997		1.14591057		 0.00075218		0.00000000		 0.00035861
O		1.54224780		2.87499997		3.72408873		-0.00075218		0.00000000		-0.00035861
O		0.84410039		1.55422509		1.09721123		 0.00067300		 0.00011406		 0.00003612
O		8.45215102		4.19577485		3.77278899		-0.00067300		-0.00011406		-0.00003612
O		8.45215102		1.55422509		3.77278899		-0.00067300		 0.00011406		-0.00003612
O		0.84410039		4.19577485		1.09721123		 0.00067300		-0.00011406		 0.00003612
O		5.49222331		4.42922506		1.09721123		 0.00067321		 0.00011376		 0.00003637
O		3.80402625		1.32077488		3.77278899		-0.00067321		-0.00011376		-0.00003637
O		3.80402625		4.42922506		3.77278899		-0.00067321		 0.00011376		-0.00003637
O		5.49222331		1.32077488		1.09721123		 0.00067321		-0.00011376		 0.00003637
