# total energy = -20632.7287327 eV

CRYSTAL
PRIMVEC
		9.04499992		0.00000000		0.00000000
		0.00000000		5.74999690		0.00000000
		0.00000000		0.00000000		4.86999981
PRIMECORD
   28 1
Si		3.01198497		0.00000000		4.37666924		 0.00006312		-0.00000000		 0.00051836
Si		6.03301495		0.00000000		0.49333058		-0.00006312		-0.00000000		-0.00051836
Si		7.53448493		2.87500026		4.37666924		 0.00006605		0.00000000		 0.00051862
Si		1.51051499		2.87500026		0.49333058		-0.00006605		0.00000000		-0.00051862
Mg		0.00000000		0.00000000		0.00000000		0.00000000		0.00000000		0.00000000
Mg		4.52249996		2.87500026		0.00000000		0.00000000		0.00000000		0.00000000
Mg		4.52249996		0.00000000		2.43499991		0.00000000		0.00000000		0.00000000
Mg		0.00000000		2.87500026		2.43499991		0.00000000		0.00000000		0.00000000
Mg		2.26124998		1.43750013		2.43499991		-0.00000059		-0.00000018		 0.00000011
Mg		6.78374994		4.31250039		2.43499991		 0.00000059		 0.00000018		-0.00000011
Mg		6.78374994		1.43750013		2.43499991		 0.00000059		-0.00000018		-0.00000011
Mg		2.26124998		4.31250039		2.43499991		-0.00000059		 0.00000018		 0.00000011
O		7.41147294		0.00000000		1.08113980		 0.00020636		0.00000000		-0.00026818
O		1.63352699		0.00000000		3.78886002		-0.00020636		0.00000000		 0.00026818
O		2.88897297		2.87500026		1.08113980		 0.00020752		-0.00000000		-0.00026773
O		6.15602695		2.87500026		3.78886002		-0.00020752		-0.00000000		 0.00026773
O		3.02193538		0.00000000		1.14591104		 0.00080604		0.00000000		 0.00040965
O		6.02306635		0.00000000		3.72408877		-0.00080604		0.00000000		-0.00040965
O		7.54443534		2.87500026		1.14591104		 0.00080556		-0.00000000		 0.00040914
O		1.50056458		2.87500026		3.72408877		-0.00080556		-0.00000000		-0.00040914
O		0.82128599		1.55422495		1.09721095		 0.00059635		 0.00009209		-0.00000732
O		8.22371393		4.19577466		3.77278886		-0.00059635		-0.00009209		 0.00000732
O		8.22371393		1.55422495		3.77278886		-0.00059635		 0.00009209		 0.00000732
O		0.82128599		4.19577466		1.09721095		 0.00059635		-0.00009209		-0.00000732
O		5.34378595		4.42922521		1.09721095		 0.00059588		 0.00009179		-0.00000693
O		3.70121397		1.32077531		3.77278886		-0.00059588		-0.00009179		 0.00000693
O		3.70121397		4.42922521		3.77278886		-0.00059588		 0.00009179		 0.00000693
O		5.34378595		1.32077531		1.09721095		 0.00059588		-0.00009179		-0.00000693
