# total energy = -35725.7274017 eV	

CRYSTAL	
PRIMVEC	
		7.86029970		0.00000000		0.00000000	
		-3.93014985		6.80721605		0.00000000	
		0.00000000		0.00000000		10.29097162	
PRIMCOORD
   46 1	
Mg		1.13856520		3.09524297		3.96922890		 0.00001392		-0.00016124		 0.00013273	
Mg		0.68030894		6.24562357		3.96922890		 0.00013268		 0.00009267		 0.00013273	
Mg		-1.81887414		4.27357185		3.96922890		-0.00014660		 0.00006857		 0.00013273	
Mg		2.79158465		3.71197701		9.11471550		-0.00001392		 0.00016124		 0.00013273	
Mg		3.24984091		0.56159483		9.11471550		-0.00013268		-0.00009267		 0.00013273	
Mg		5.74902399		2.53364656		9.11471550		 0.00014660		-0.00006857		 0.00013273	
Mg		0.81196896		1.65960010		1.15979272		 0.00053186		 0.00075061		-0.00022710	
Mg		2.08690957		6.68060470		1.15979272		-0.00091598		 0.00008530		-0.00022710	
Mg		-2.89887853		5.27423359		1.15979272		 0.00038412		-0.00083591		-0.00022710	
Mg		3.11818089		5.14761988		6.30528011		-0.00053186		-0.00075061		-0.00022710	
Mg		1.84324028		0.12661371		6.30528011		 0.00091598		-0.00008530		-0.00022710	
Mg		6.82902838		1.53298560		6.30528011		-0.00038412		 0.00083591		-0.00022710	
Mg		0.00000000		4.53814560		1.05894115		0.00000000		-0.00000000		-0.00013458	
Mg		3.93014985		2.26907280		6.20442853		0.00000000		-0.00000000		-0.00013458	
Si		3.93014985		2.26907280		1.79165864		-0.00000000		-0.00000000		 0.00034642	
Si		0.00000000		4.53814560		6.93714602		0.00000000		0.00000000		 0.00034642	
Si		0.00000000		0.00000000		4.13491380		0.00000000		0.00000000		 0.00036790	
Si		0.00000000		0.00000000		9.28040197		-0.00000000		-0.00000000		 0.00036790	
O		1.46515986		0.18651784		10.04399157		 0.00035697		 0.00025063		-0.00025509	
O		6.96619061		1.17560686		10.04399157		-0.00039555		 0.00018383		-0.00025509	
O		3.35909908		5.44509450		10.04399157		 0.00003857		-0.00043447		-0.00025509	
O		2.46498999		6.62070214		4.89850419		-0.00035697		-0.00025063		-0.00025509	
O		-3.03604076		5.63161312		4.89850419		 0.00039555		-0.00018383		-0.00025509	
O		0.57105077		1.36212470		4.89850419		-0.00003857		 0.00043447		-0.00025509	
O		3.35792003		0.67255318		4.98494783		 0.00055470		 0.00027609		 0.00027342	
O		5.59889148		2.57176666		4.98494783		-0.00051645		 0.00034234		 0.00027342	
O		2.83363804		3.56289857		4.98494783		-0.00003825		-0.00061843		 0.00027342	
O		0.57222982		6.13466601		10.13043600		-0.00055470		-0.00027609		 0.00027342	
O		-1.66874163		4.23545175		10.13043600		 0.00051645		-0.00034234		 0.00027342	
O		1.09651181		3.24432062		10.13043600		 0.00003825		 0.00061843		 0.00027342	
O		2.40878884		2.00608761		2.38750630		-0.00010391		-0.00031018		-0.00000328	
O		4.91858254		1.08302904		2.38750630		 0.00032058		 0.00006510		-0.00000328	
O		4.46307817		3.71810412		2.38750630		-0.00021667		 0.00024508		-0.00000328	
O		1.52136101		4.80113158		7.53299368		 0.00010391		 0.00031018		-0.00000328	
O		-0.98843269		5.72419094		7.53299368		-0.00032058		-0.00006510		-0.00000328	
O		-0.53292832		3.08911586		7.53299368		 0.00021667		-0.00024508		-0.00000328	
O		-0.37690137		2.97271268		2.46777568		-0.00009022		 0.00002302		 0.00013628	
O		1.54415588		4.99445644		2.46777568		 0.00002518		-0.00008965		 0.00013628	
O		-1.16725529		5.64726848		2.46777568		 0.00006504		 0.00006663		 0.00013628	
O		4.30705122		3.83450651		7.61326306		 0.00009022		-0.00002302		 0.00013628	
O		2.38599397		1.81276275		7.61326306		-0.00002518		 0.00008965		 0.00013628	
O		5.09740514		1.15994993		7.61326306		-0.00006504		-0.00006663		 0.00013628	
O		3.93014985		2.26907280		0.00000000		0.00000000		0.00000000		-0.00030542	
O		0.00000000		4.53814560		5.14548660		0.00000000		-0.00000000		-0.00030542	
O		0.00000000		0.00000000		2.39059304		-0.00000000		-0.00000000		-0.00044522	
O		0.00000000		0.00000000		7.53608042		0.00000000		0.00000000		-0.00044522	
