# total energy = -35726.5979336 eV	

CRYSTAL	
PRIMVEC	
		7.86029970		0.00000000		0.00000000	
		-3.93014985		6.80721605		0.00000000	
		0.00000000		0.00000000		9.33367358	
PRIMCOORD
   46 1	
Mg		1.13856520		3.09524297		3.59999761		-0.00030676		-0.00008777		-0.00018950	
Mg		0.68030894		6.24562357		3.59999761		 0.00022939		-0.00022178		-0.00018950	
Mg		-1.81887414		4.27357185		3.59999761		 0.00007737		 0.00030955		-0.00018950	
Mg		2.79158465		3.71197701		8.26683597		 0.00030676		 0.00008777		-0.00018950	
Mg		3.24984091		0.56159483		8.26683597		-0.00022939		 0.00022178		-0.00018950	
Mg		5.74902399		2.53364656		8.26683597		-0.00007737		-0.00030955		-0.00018950	
Mg		0.81196896		1.65960010		1.05190461		-0.00004072		 0.00016175		 0.00018646	
Mg		2.08690957		6.68060470		1.05190461		-0.00011972		-0.00011614		 0.00018646	
Mg		-2.89887853		5.27423359		1.05190461		 0.00016045		-0.00004561		 0.00018646	
Mg		3.11818089		5.14761988		5.71874297		 0.00004072		-0.00016175		 0.00018646	
Mg		1.84324028		0.12661371		5.71874297		 0.00011972		 0.00011614		 0.00018646	
Mg		6.82902838		1.53298560		5.71874297		-0.00016045		 0.00004561		 0.00018646	
Mg		0.00000000		4.53814560		0.96043509		0.00000000		-0.00000000		-0.00042449	
Mg		3.93014985		2.26907280		5.62727266		0.00000000		0.00000000		-0.00042449	
Si		3.93014985		2.26907280		1.62499277		0.00000000		0.00000000		 0.00009730	
Si		0.00000000		4.53814560		6.29182956		0.00000000		0.00000000		 0.00009730	
Si		0.00000000		0.00000000		3.75027082		0.00000000		0.00000000		-0.00027898	
Si		0.00000000		0.00000000		8.41710761		-0.00000000		-0.00000000		-0.00027898	
O		1.46515986		0.18651784		9.10966683		-0.00039979		 0.00007069		-0.00012820	
O		6.96619061		1.17560686		9.10966683		 0.00013868		-0.00038158		-0.00012820	
O		3.35909908		5.44509450		9.10966683		 0.00026112		 0.00031089		-0.00012820	
O		2.46498999		6.62070214		4.44282847		 0.00039979		-0.00007069		-0.00012820	
O		-3.03604076		5.63161312		4.44282847		-0.00013868		 0.00038158		-0.00012820	
O		0.57105077		1.36212470		4.44282847		-0.00026112		-0.00031089		-0.00012820	
O		3.35792003		0.67255318		4.52123181		 0.00030626		 0.00001687		 0.00006505	
O		5.59889148		2.57176666		4.52123181		-0.00016773		 0.00025679		 0.00006505	
O		2.83363804		3.56289857		4.52123181		-0.00013853		-0.00027366		 0.00006505	
O		0.57222982		6.13466601		9.18806939		-0.00030626		-0.00001687		 0.00006505	
O		-1.66874163		4.23545175		9.18806939		 0.00016773		-0.00025679		 0.00006505	
O		1.09651181		3.24432062		9.18806939		 0.00013853		 0.00027366		 0.00006505	
O		2.40878884		2.00608761		2.16541274		 0.00008683		-0.00020476		 0.00000834	
O		4.91858254		1.08302904		2.16541274		 0.00013392		 0.00017758		 0.00000834	
O		4.46307817		3.71810412		2.16541274		-0.00022074		 0.00002718		 0.00000834	
O		1.52136101		4.80113158		6.83224953		-0.00008683		 0.00020476		 0.00000834	
O		-0.98843269		5.72419094		6.83224953		-0.00013392		-0.00017758		 0.00000834	
O		-0.53292832		3.08911586		6.83224953		 0.00022074		-0.00002718		 0.00000834	
O		-0.37690137		2.97271268		2.23821484		-0.00009565		-0.00005160		-0.00002694	
O		1.54415588		4.99445644		2.23821484		 0.00009251		-0.00005703		-0.00002694	
O		-1.16725529		5.64726848		2.23821484		 0.00000314		 0.00010863		-0.00002694	
O		4.30705122		3.83450651		6.90505241		 0.00009565		 0.00005160		-0.00002694	
O		2.38599397		1.81276275		6.90505241		-0.00009251		 0.00005703		-0.00002694	
O		5.09740514		1.15994993		6.90505241		-0.00000314		-0.00010863		-0.00002694	
O		3.93014985		2.26907280		0.00000000		-0.00000000		-0.00000000		 0.00068783	
O		0.00000000		4.53814560		4.66683679		0.00000000		0.00000000		 0.00068783	
O		0.00000000		0.00000000		2.16821258		0.00000000		-0.00000000		 0.00017266	
O		0.00000000		0.00000000		6.83504937		0.00000000		0.00000000		 0.00017266	
