# total energy = -35732.1106637 eV	

CRYSTAL	
PRIMVEC	
		7.86029970		0.00000000		0.00000000	
		-3.93014985		6.80721605		0.00000000	
		0.00000000		0.00000000		8.85502849	
PRIMCOORD
   46 1	
Mg		1.13856520		3.09524297		3.41538275		-0.00031197		-0.00010183		 0.00001865	
Mg		0.68030894		6.24562357		3.41538275		 0.00024418		-0.00021926		 0.00001865	
Mg		-1.81887414		4.27357185		3.41538275		 0.00006780		 0.00032109		 0.00001865	
Mg		2.79158465		3.71197701		7.84289464		 0.00031197		 0.00010183		 0.00001865	
Mg		3.24984091		0.56159483		7.84289464		-0.00024418		 0.00021926		 0.00001865	
Mg		5.74902399		2.53364656		7.84289464		-0.00006780		-0.00032109		 0.00001865	
Mg		0.81196896		1.65960010		0.99796094		-0.00061965		-0.00019191		-0.00010623	
Mg		2.08690957		6.68060470		0.99796094		 0.00047602		-0.00044067		-0.00010623	
Mg		-2.89887853		5.27423359		0.99796094		 0.00014363		 0.00063259		-0.00010623	
Mg		3.11818089		5.14761988		5.42547362		 0.00061965		 0.00019191		-0.00010623	
Mg		1.84324028		0.12661371		5.42547362		-0.00047602		 0.00044067		-0.00010623	
Mg		6.82902838		1.53298560		5.42547362		-0.00014363		-0.00063259		-0.00010623	
Mg		0.00000000		4.53814560		0.91118166		-0.00000000		-0.00000000		 0.00023147	
Mg		3.93014985		2.26907280		5.33869512		-0.00000000		-0.00000000		 0.00023147	
Si		3.93014985		2.26907280		1.54166023		0.00000000		0.00000000		 0.00068414	
Si		0.00000000		4.53814560		5.96917212		0.00000000		0.00000000		 0.00068414	
Si		0.00000000		0.00000000		3.55794894		0.00000000		0.00000000		 0.00064734	
Si		0.00000000		0.00000000		7.98546161		0.00000000		0.00000000		 0.00064734	
O		1.46515986		0.18651784		8.64250406		-0.00037662		 0.00005921		-0.00016656	
O		6.96619061		1.17560686		8.64250406		 0.00013703		-0.00035577		-0.00016656	
O		3.35909908		5.44509450		8.64250406		 0.00023959		 0.00029655		-0.00016656	
O		2.46498999		6.62070214		4.21499218		 0.00037662		-0.00005921		-0.00016656	
O		-3.03604076		5.63161312		4.21499218		-0.00013703		 0.00035577		-0.00016656	
O		0.57105077		1.36212470		4.21499218		-0.00023959		-0.00029655		-0.00016656	
O		3.35792003		0.67255318		4.28937419		 0.00035673		-0.00007736		-0.00013253	
O		5.59889148		2.57176666		4.28937419		-0.00011137		 0.00034762		-0.00013253	
O		2.83363804		3.56289857		4.28937419		-0.00024536		-0.00027026		-0.00013253	
O		0.57222982		6.13466601		8.71688687		-0.00035673		 0.00007736		-0.00013253	
O		-1.66874163		4.23545175		8.71688687		 0.00011137		-0.00034762		-0.00013253	
O		1.09651181		3.24432062		8.71688687		 0.00024536		 0.00027026		-0.00013253	
O		2.40878884		2.00608761		2.05436557		-0.00014451		-0.00082684		-0.00012401	
O		4.91858254		1.08302904		2.05436557		 0.00078832		 0.00028828		-0.00012401	
O		4.46307817		3.71810412		2.05436557		-0.00064381		 0.00053856		-0.00012401	
O		1.52136101		4.80113158		6.48187746		 0.00014451		 0.00082684		-0.00012401	
O		-0.98843269		5.72419094		6.48187746		-0.00078832		-0.00028828		-0.00012401	
O		-0.53292832		3.08911586		6.48187746		 0.00064381		-0.00053856		-0.00012401	
O		-0.37690137		2.97271268		2.12343481		-0.00004045		-0.00002831		-0.00004269	
O		1.54415588		4.99445644		2.12343481		 0.00004474		-0.00002088		-0.00004269	
O		-1.16725529		5.64726848		2.12343481		-0.00000429		 0.00004919		-0.00004269	
O		4.30705122		3.83450651		6.55094670		 0.00004045		 0.00002831		-0.00004269	
O		2.38599397		1.81276275		6.55094670		-0.00004474		 0.00002088		-0.00004269	
O		5.09740514		1.15994993		6.55094670		 0.00000429		-0.00004919		-0.00004269	
O		3.93014985		2.26907280		0.00000000		0.00000000		0.00000000		 0.00028926	
O		0.00000000		4.53814560		4.42751189		0.00000000		-0.00000000		 0.00028926	
O		0.00000000		0.00000000		2.05702157		0.00000000		0.00000000		-0.00019211	
O		0.00000000		0.00000000		6.48453503		0.00000000		-0.00000000		-0.00019211	
