# total energy = -35726.3525795 eV	

CRYSTAL	
PRIMVEC	
		7.86029970		0.00000000		0.00000000	
		-3.93014985		6.80721605		0.00000000	
		0.00000000		0.00000000		10.05164907	
PRIMCOORD
   46 1	
Mg		1.13856520		3.09524297		3.87692069		 0.00035339		-0.00012735		 0.00034551	
Mg		0.68030894		6.24562357		3.87692069		-0.00006641		 0.00036972		 0.00034551	
Mg		-1.81887414		4.27357185		3.87692069		-0.00028698		-0.00024238		 0.00034551	
Mg		2.79158465		3.71197701		8.90274601		-0.00035339		 0.00012735		 0.00034551	
Mg		3.24984091		0.56159483		8.90274601		 0.00006641		-0.00036972		 0.00034551	
Mg		5.74902399		2.53364656		8.90274601		 0.00028698		 0.00024238		 0.00034551	
Mg		0.81196896		1.65960010		1.13282089		 0.00012441		 0.00046355		 0.00017519	
Mg		2.08690957		6.68060470		1.13282089		-0.00046365		-0.00012403		 0.00017519	
Mg		-2.89887853		5.27423359		1.13282089		 0.00033924		-0.00033952		 0.00017519	
Mg		3.11818089		5.14761988		6.15864543		-0.00012441		-0.00046355		 0.00017519	
Mg		1.84324028		0.12661371		6.15864543		 0.00046365		 0.00012403		 0.00017519	
Mg		6.82902838		1.53298560		6.15864543		-0.00033924		 0.00033952		 0.00017519	
Mg		0.00000000		4.53814560		1.03431483		0.00000000		-0.00000000		-0.00075949	
Mg		3.93014985		2.26907280		6.06014015		0.00000000		-0.00000000		-0.00075949	
Si		3.93014985		2.26907280		1.74999197		0.00000000		0.00000000		-0.00005458	
Si		0.00000000		4.53814560		6.77581651		0.00000000		0.00000000		-0.00005458	
Si		0.00000000		0.00000000		4.03875247		0.00000000		0.00000000		 0.00010103	
Si		0.00000000		0.00000000		9.06457779		0.00000000		0.00000000		 0.00010103	
O		1.46515986		0.18651784		9.81040940		 0.00009695		-0.00017360		-0.00014222	
O		6.96619061		1.17560686		9.81040940		 0.00010187		 0.00017077		-0.00014222	
O		3.35909908		5.44509450		9.81040940		-0.00019882		 0.00000284		-0.00014222	
O		2.46498999		6.62070214		4.78458487		-0.00009695		 0.00017360		-0.00014222	
O		-3.03604076		5.63161312		4.78458487		-0.00010187		-0.00017077		-0.00014222	
O		0.57105077		1.36212470		4.78458487		 0.00019882		-0.00000284		-0.00014222	
O		3.35792003		0.67255318		4.86901863		-0.00037532		-0.00005364		 0.00015910	
O		5.59889148		2.57176666		4.86901863		 0.00023411		-0.00029822		 0.00015910	
O		2.83363804		3.56289857		4.86901863		 0.00014121		 0.00035186		 0.00015910	
O		0.57222982		6.13466601		9.89484474		 0.00037532		 0.00005364		 0.00015910	
O		-1.66874163		4.23545175		9.89484474		-0.00023411		 0.00029822		 0.00015910	
O		1.09651181		3.24432062		9.89484474		-0.00014121		-0.00035186		 0.00015910	
O		2.40878884		2.00608761		2.33198271		 0.00001947		-0.00022334		-0.00016719	
O		4.91858254		1.08302904		2.33198271		 0.00018368		 0.00012854		-0.00016719	
O		4.46307817		3.71810412		2.33198271		-0.00020316		 0.00009481		-0.00016719	
O		1.52136101		4.80113158		7.35780803		-0.00001947		 0.00022334		-0.00016719	
O		-0.98843269		5.72419094		7.35780803		-0.00018368		-0.00012854		-0.00016719	
O		-0.53292832		3.08911586		7.35780803		 0.00020316		-0.00009481		-0.00016719	
O		-0.37690137		2.97271268		2.41038606		 0.00010662		-0.00037684		 0.00020691	
O		1.54415588		4.99445644		2.41038606		 0.00027304		 0.00028076		 0.00020691	
O		-1.16725529		5.64726848		2.41038606		-0.00037966		 0.00009608		 0.00020691	
O		4.30705122		3.83450651		7.43620981		-0.00010662		 0.00037684		 0.00020691	
O		2.38599397		1.81276275		7.43620981		-0.00027304		-0.00028076		 0.00020691	
O		5.09740514		1.15994993		7.43620981		 0.00037966		-0.00009608		 0.00020691	
O		3.93014985		2.26907280		0.00000000		0.00000000		0.00000000		-0.00042609	
O		0.00000000		4.53814560		5.02582454		0.00000000		-0.00000000		-0.00042609	
O		0.00000000		0.00000000		2.33499792		0.00000000		-0.00000000		-0.00059276	
O		0.00000000		0.00000000		7.36082246		0.00000000		0.00000000		-0.00059276	
