# total energy = -10831.3334085 eV	

CRYSTAL	
PRIMVEC	
		2.80460000		0.00000000		0.00000000	
		-1.40230000		2.62578992		0.00000000	
		0.00000000		0.00000000		14.96000004	
PRIMCOORD
   13 1	
Mg		1.40230000		0.87526293		2.49333287		0.00000000		-0.00020338		 0.00007027	
Mg		0.00000000		1.75052587		12.46666604		0.00000000		 0.00020338		-0.00007027	
Mg		0.00000000		0.00000000		0.00000000		0.00000000		0.00000000		0.00000000	
Mg		0.00000000		1.75052587		4.98666687		0.00000000		 0.00064378		-0.00036960	
Mg		1.40230000		0.87526293		9.97333289		0.00000000		-0.00064378		 0.00036960	
O		1.40230000		0.87526293		13.71333402		0.00000000		-0.00007145		-0.00004579	
O		0.00000000		1.75052587		1.24666602		0.00000000		 0.00007145		 0.00004579	
O		1.40230000		0.87526293		6.08872013		0.00000000		-0.00017432		-0.00004617	
O		0.00000000		1.75052587		8.87127990		0.00000000		 0.00017432		 0.00004617	
O		0.00000000		0.00000000		11.22299198		-0.00000000		 0.00052908		 0.00020358	
O		0.00000000		0.00000000		3.73700806		-0.00000000		-0.00052908		-0.00020358	
H		1.40230000		0.87526293		7.07907207		0.00000000		 0.00040588		 0.00010529	
H		0.00000000		1.75052587		7.88092909		0.00000000		-0.00040588		-0.00010529	
