# total energy = -10831.0719886 eV	

CRYSTAL	
PRIMVEC	
		3.33520016		0.00000000		0.00000000	
		-1.66760008		2.62578974		0.00000000	
		0.00000000		0.00000000		14.96000029	
PRIMCOORD
   13 1	
Mg		1.66760008		0.87526291		2.49333327		0.00000000		-0.00030846		 0.00041408	
Mg		0.00000000		1.75052616		12.46666668		0.00000000		 0.00030846		-0.00041408	
Mg		0.00000000		0.00000000		0.00000000		0.00000000		0.00000000		0.00000000	
Mg		0.00000000		1.75052616		4.98666721		0.00000000		 0.00019141		-0.00028610	
Mg		1.66760008		0.87526291		9.97333341		0.00000000		-0.00019141		 0.00028610	
O		1.66760008		0.87526291		13.71333449		0.00000000		 0.00091492		-0.00003539	
O		0.00000000		1.75052616		1.24666613		0.00000000		-0.00091492		 0.00003539	
O		1.66760008		0.87526291		6.08872040		0.00000000		-0.00001836		-0.00010920	
O		0.00000000		1.75052616		8.87128056		0.00000000		 0.00001836		 0.00010920	
O		0.00000000		0.00000000		11.22299256		0.00000000		 0.00012261		-0.00012586	
O		0.00000000		0.00000000		3.73700806		0.00000000		-0.00012261		 0.00012586	
H		1.66760008		0.87526291		7.07907240		0.00000000		 0.00024693		 0.00016829	
H		0.00000000		1.75052616		7.88092922		0.00000000		-0.00024693		-0.00016829	
