# total energy = -10831.6304809 eV	

CRYSTAL	
PRIMVEC	
		3.18359989		0.00000000		0.00000000	
		-1.59179994		2.62578862		0.00000000	
		0.00000000		0.00000000		14.96000011	
PRIMCOORD
   13 1	
Mg		1.59179994		0.87526298		2.49333303		0.00000000		-0.00021626		 0.00017296	
Mg		0.00000000		1.75052596		12.46666548		-0.00000000		 0.00021626		-0.00017296	
Mg		0.00000000		0.00000000		0.00000000		0.00000000		0.00000000		0.00000000	
Mg		0.00000000		1.75052596		4.98666670		0.00000000		-0.00041552		-0.00016921	
Mg		1.59179994		0.87526298		9.97333277		0.00000000		 0.00041552		 0.00016921	
O		1.59179994		0.87526298		13.71333359		0.00000000		 0.00018487		-0.00057237	
O		0.00000000		1.75052596		1.24666588		0.00000000		-0.00018487		 0.00057237	
O		1.59179994		0.87526298		6.08871979		0.00000000		-0.00007332		 0.00004931	
O		0.00000000		1.75052596		8.87127968		0.00000000		 0.00007332		-0.00004931	
O		0.00000000		0.00000000		11.22299155		0.00000000		 0.00007135		 0.00045258	
O		0.00000000		0.00000000		3.73700792		0.00000000		-0.00007135		-0.00045258	
H		1.59179994		0.87526298		7.07907181		0.00000000		-0.00084493		 0.00033793	
H		0.00000000		1.75052596		7.88092861		0.00000000		 0.00084493		-0.00033793	
