# total energy = -10830.8059198 eV	

CRYSTAL	
PRIMVEC	
		2.72880013		0.00000000		0.00000000	
		-1.36440006		2.62578792		0.00000000	
		0.00000000		0.00000000		14.95999998	
PRIMCOORD
   13 1	
Mg		1.36440006		0.87526291		2.49333306		0.00000000		 0.00051586		-0.00028594	
Mg		0.00000000		1.75052610		12.46666665		0.00000000		-0.00051586		 0.00028594	
Mg		0.00000000		0.00000000		0.00000000		0.00000000		0.00000000		0.00000000	
Mg		0.00000000		1.75052610		4.98666721		0.00000000		-0.00086397		-0.00014622	
Mg		1.36440006		0.87526291		9.97333360		0.00000000		 0.00086397		 0.00014622	
O		1.36440006		0.87526291		13.71333455		0.00000000		-0.00037834		 0.00013960	
O		0.00000000		1.75052610		1.24666598		0.00000000		 0.00037834		-0.00013960	
O		1.36440006		0.87526291		6.08872015		0.00000000		 0.00057194		-0.00054691	
O		0.00000000		1.75052610		8.87128038		0.00000000		-0.00057194		 0.00054691	
O		0.00000000		0.00000000		11.22299253		0.00000000		 0.00042319		 0.00039061	
O		0.00000000		0.00000000		3.73700828		0.00000000		-0.00042319		-0.00039061	
H		1.36440006		0.87526291		7.07907240		0.00000000		-0.00064494		-0.00015839	
H		0.00000000		1.75052610		7.88092950		0.00000000		 0.00064494		 0.00015839	
