# total energy = -10831.3813666 eV	

CRYSTAL	
PRIMVEC	
		3.25939976		0.00000000		0.00000000	
		-1.62969988		2.62578874		0.00000000	
		0.00000000		0.00000000		14.95999953	
PRIMCOORD
   13 1	
Mg		1.62969988		0.87526291		2.49333293		0.00000000		-0.00009505		 0.00036653	
Mg		0.00000000		1.75052583		12.46666497		0.00000000		 0.00009505		-0.00036653	
Mg		0.00000000		0.00000000		0.00000000		0.00000000		0.00000000		0.00000000	
Mg		0.00000000		1.75052583		4.98666651		0.00000000		-0.00077199		-0.00043951	
Mg		1.62969988		0.87526291		9.97333237		0.00000000		 0.00077199		 0.00043951	
O		1.62969988		0.87526291		13.71333290		0.00000000		-0.00031344		 0.00019425	
O		0.00000000		1.75052583		1.24666598		0.00000000		 0.00031344		-0.00019425	
O		1.62969988		0.87526291		6.08871944		-0.00000000		-0.00057324		 0.00026830	
O		0.00000000		1.75052583		8.87127944		-0.00000000		 0.00057324		-0.00026830	
O		0.00000000		0.00000000		11.22299112		-0.00000000		 0.00028726		 0.00010819	
O		0.00000000		0.00000000		3.73700775		-0.00000000		-0.00028726		-0.00010819	
H		1.62969988		0.87526291		7.07907143		0.00000000		 0.00062095		 0.00050810	
H		0.00000000		1.75052583		7.88092842		0.00000000		-0.00062095		-0.00050810	
