# total energy = -10831.8449366 eV	

CRYSTAL	
PRIMVEC	
		2.95619974		0.00000000		0.00000000	
		-1.47809987		2.62578825		0.00000000	
		0.00000000		0.00000000		14.95999957	
PRIMCOORD
   13 1	
Mg		1.47809987		0.87526305		2.49333277		0.00000000		 0.00009516		-0.00007250	
Mg		0.00000000		1.75052580		12.46666503		0.00000000		-0.00009516		 0.00007250	
Mg		0.00000000		0.00000000		0.00000000		0.00000000		0.00000000		0.00000000	
Mg		0.00000000		1.75052580		4.98666642		0.00000000		 0.00084841		 0.00008068	
Mg		1.47809987		0.87526305		9.97333226		0.00000000		-0.00084841		-0.00008068	
O		1.47809987		0.87526305		13.71333289		0.00000000		-0.00018308		 0.00062656	
O		0.00000000		1.75052580		1.24666579		0.00000000		 0.00018308		-0.00062656	
O		1.47809987		0.87526305		6.08871936		0.00000000		-0.00047923		-0.00012206	
O		0.00000000		1.75052580		8.87127932		0.00000000		 0.00047923		 0.00012206	
O		0.00000000		0.00000000		11.22299091		0.00000000		 0.00028779		-0.00040970	
O		0.00000000		0.00000000		3.73700777		0.00000000		-0.00028779		 0.00040970	
H		1.47809987		0.87526305		7.07907140		0.00000000		 0.00031483		-0.00028831	
H		0.00000000		1.75052580		7.88092846		0.00000000		-0.00031483		 0.00028831	
