# total energy = -92495.8550946 eV	

CRYSTAL	
PRIMVEC	
		18.49999946		0.00000000		0.00000000	
		0.00000000		17.89998897		0.00000000	
		0.00000000		0.00000000		5.13824535	
PRIMCOORD
   164 1	
Mg		2.40499993		3.04299831		1.95253434		 0.00034176		 0.00016116		 0.00002986	
Mg		16.09499953		14.85699066		3.18571471		-0.00034176		-0.00016116		-0.00002986	
Mg		6.84499980		14.85699066		4.52166072		-0.00034176		-0.00016116		 0.00002986	
Mg		11.65499966		3.04299831		0.61659018		 0.00034176		 0.00016116		-0.00002986	
Mg		16.09499953		11.99299280		3.18571471		-0.00034176		 0.00016116		-0.00002986	
Mg		2.40499993		5.90699618		1.95253434		 0.00034176		-0.00016116		 0.00002986	
Mg		11.65499966		5.90699618		0.61659018		 0.00034176		-0.00016116		-0.00002986	
Mg		6.84499980		11.99299280		4.52166072		-0.00034176		 0.00016116		 0.00002986	
Mg		2.40499993		1.43199986		4.47027697		-0.00032295		 0.00044503		-0.00042806	
Mg		16.09499953		16.46799097		0.66797208		 0.00032295		-0.00044503		 0.00042806	
Mg		6.84499980		16.46799097		1.90115244		 0.00032295		-0.00044503		-0.00042806	
Mg		11.65499966		1.43199986		3.23709661		-0.00032295		 0.00044503		 0.00042806	
Mg		16.09499953		10.38199435		0.66797208		 0.00032295		 0.00044503		 0.00042806	
Mg		2.40499993		7.51799648		4.47027697		-0.00032295		-0.00044503		-0.00042806	
Mg		11.65499966		7.51799648		3.23709661		-0.00032295		-0.00044503		 0.00042806	
Mg		6.84499980		10.38199435		1.90115244		 0.00032295		 0.00044503		-0.00042806	
Mg		2.40499993		17.54198994		1.95253434		-0.00044872		 0.00041924		 0.00022607	
Mg		16.09499953		0.35800089		3.18571471		 0.00044872		-0.00041924		-0.00022607	
Mg		6.84499980		0.35800089		4.52166072		 0.00044872		-0.00041924		 0.00022607	
Mg		11.65499966		17.54198994		0.61659018		-0.00044872		 0.00041924		-0.00022607	
Mg		16.09499953		8.59199545		3.18571471		 0.00044872		 0.00041924		-0.00022607	
Mg		2.40499993		9.30799538		1.95253434		-0.00044872		-0.00041924		 0.00022607	
Mg		11.65499966		9.30799538		0.61659018		-0.00044872		-0.00041924		-0.00022607	
Mg		6.84499980		8.59199545		4.52166072		 0.00044872		 0.00041924		 0.00022607	
Mg		2.40499993		4.47499817		4.47027697		-0.00010102		0.00000000		 0.00037761	
Mg		16.09499953		13.42499266		0.66797208		 0.00010102		0.00000000		-0.00037761	
Mg		6.84499980		13.42499266		1.90115244		 0.00010102		0.00000000		 0.00037761	
Mg		11.65499966		4.47499817		3.23709661		-0.00010102		0.00000000		-0.00037761	
Si		0.55499998		14.67799207		1.49009171		-0.00000626		 0.00018451		 0.00028635	
Si		17.94500132		3.22199876		3.64815734		 0.00000626		-0.00018451		-0.00028635	
Si		8.69499974		3.22199876		4.05921623		 0.00000626		-0.00018451		 0.00028635	
Si		9.80499786		14.67799207		1.07903282		-0.00000626		 0.00018451		-0.00028635	
Si		17.94500132		5.72799758		3.64815734		 0.00000626		 0.00018451		-0.00028635	
Si		0.55499998		12.17199324		1.49009171		-0.00000626		-0.00018451		 0.00028635	
Si		9.80499786		12.17199324		1.07903282		-0.00000626		-0.00018451		-0.00028635	
Si		8.69499974		5.72799758		4.05921623		 0.00000626		 0.00018451		 0.00028635	
Si		0.55499998		16.46799097		4.05921808		 0.00019235		 0.00034677		-0.00005844	
Si		17.94500132		1.43199986		1.07903282		-0.00019235		-0.00034677		 0.00005844	
Si		8.69499974		1.43199986		1.49009356		-0.00019235		-0.00034677		-0.00005844	
Si		9.80499786		16.46799097		3.64815734		 0.00019235		 0.00034677		 0.00005844	
Si		17.94500132		7.51799648		1.07903282		-0.00019235		 0.00034677		 0.00005844	
Si		0.55499998		10.38199435		4.05921808		 0.00019235		-0.00034677		-0.00005844	
Si		9.80499786		10.38199435		3.64815734		 0.00019235		-0.00034677		 0.00005844	
Si		8.69499974		7.51799648		1.49009356		-0.00019235		 0.00034677		-0.00005844	
Si		4.06999988		16.46799097		0.20552944		 0.00011234		-0.00020351		 0.00005613	
Si		14.42999773		1.43199986		4.93271961		-0.00011234		 0.00020351		-0.00005613	
Si		5.17999985		1.43199986		2.77465582		-0.00011234		 0.00020351		 0.00005613	
Si		13.32000146		16.46799097		2.36359508		 0.00011234		-0.00020351		-0.00005613	
Si		14.42999773		7.51799648		4.93271961		-0.00011234		-0.00020351		-0.00005613	
Si		4.06999988		10.38199435		0.20552944		 0.00011234		 0.00020351		 0.00005613	
Si		13.32000146		10.38199435		2.36359508		 0.00011234		 0.00020351		-0.00005613	
Si		5.17999985		7.51799648		2.77465582		-0.00011234		-0.00020351		 0.00005613	
Si		4.06999988		14.67799207		2.77465582		-0.00000352		 0.00014324		-0.00008590	
Si		14.42999773		3.22199876		2.36359508		 0.00000352		-0.00014324		 0.00008590	
Si		5.17999985		3.22199876		0.20552944		 0.00000352		-0.00014324		-0.00008590	
Si		13.32000146		14.67799207		4.93271961		-0.00000352		 0.00014324		 0.00008590	
Si		14.42999773		5.72799758		2.36359508		 0.00000352		 0.00014324		 0.00008590	
Si		4.06999988		12.17199324		2.77465582		-0.00000352		-0.00014324		-0.00008590	
Si		13.32000146		12.17199324		4.93271961		-0.00000352		-0.00014324		 0.00008590	
Si		5.17999985		5.72799758		0.20552944		 0.00000352		 0.00014324		-0.00008590	
O		1.10999997		1.25299941		1.02764907		-0.00014096		-0.00001707		-0.00032103	
O		17.38999949		16.64699141		4.11059998		 0.00014096		 0.00001707		 0.00032103	
O		8.13999976		16.64699141		3.59677544		 0.00014096		 0.00001707		-0.00032103	
O		10.35999970		1.25299941		1.54147545		-0.00014096		-0.00001707		 0.00032103	
O		17.38999949		10.20299390		4.11059998		 0.00014096		-0.00001707		 0.00032103	
O		1.10999997		7.69699507		1.02764907		-0.00014096		 0.00001707		-0.00032103	
O		10.35999970		7.69699507		1.54147545		-0.00014096		 0.00001707		 0.00032103	
O		8.13999976		10.20299390		3.59677544		 0.00014096		-0.00001707		-0.00032103	
O		1.10999997		3.22199876		3.59677544		 0.00015535		 0.00029325		-0.00043086	
O		17.38999949		14.67799207		1.54147545		-0.00015535		-0.00029325		 0.00043086	
O		8.13999976		14.67799207		1.02764907		-0.00015535		-0.00029325		-0.00043086	
O		10.35999970		3.22199876		4.11059998		 0.00015535		 0.00029325		 0.00043086	
O		17.38999949		12.17199324		1.54147545		-0.00015535		 0.00029325		 0.00043086	
O		1.10999997		5.72799758		3.59677544		 0.00015535		-0.00029325		-0.00043086	
O		10.35999970		5.72799758		4.11059998		 0.00015535		-0.00029325		 0.00043086	
O		8.13999976		12.17199324		1.02764907		-0.00015535		 0.00029325		-0.00043086	
O		1.10999997		13.42499266		1.02764907		-0.00021271		0.00000000		 0.00024604	
O		17.38999949		4.47499817		4.11059998		 0.00021271		0.00000000		-0.00024604	
O		8.13999976		4.47499817		3.59677544		 0.00021271		-0.00000000		 0.00024604	
O		10.35999970		13.42499266		1.54147545		-0.00021271		0.00000000		-0.00024604	
O		1.10999997		4.47499817		1.02764907		 0.00070783		0.00000000		-0.00008352	
O		17.38999949		13.42499266		4.11059998		-0.00070783		0.00000000		 0.00008352	
O		8.13999976		13.42499266		3.59677544		-0.00070783		0.00000000		-0.00008352	
O		10.35999970		4.47499817		1.54147545		 0.00070783		0.00000000		 0.00008352	
O		1.10999997		0.00000000		3.59677544		-0.00023794		 0.00019559		 0.00020613	
O		17.38999949		0.00000000		1.54147545		 0.00023794		-0.00019559		-0.00020613	
O		8.13999976		0.00000000		1.02764907		 0.00023794		-0.00019559		 0.00020613	
O		10.35999970		0.00000000		4.11059998		-0.00023794		 0.00019559		-0.00020613	
O		17.38999949		8.94999449		1.54147545		 0.00023794		 0.00019559		-0.00020613	
O		1.10999997		8.94999449		3.59677544		-0.00023794		-0.00019559		 0.00020613	
O		10.35999970		8.94999449		4.11059998		-0.00023794		-0.00019559		-0.00020613	
O		8.13999976		8.94999449		1.02764907		 0.00023794		 0.00019559		 0.00020613	
O		0.92499997		15.57299059		0.25691319		-0.00062959		 0.00020229		 0.00021229	
O		17.57499948		2.32699838		4.88133771		 0.00062959		-0.00020229		-0.00021229	
O		8.32499976		2.32699838		2.82603772		 0.00062959		-0.00020229		 0.00021229	
O		10.17499970		15.57299059		2.31221133		-0.00062959		 0.00020229		-0.00021229	
O		17.57499948		6.62299611		4.88133771		 0.00062959		 0.00020229		-0.00021229	
O		0.92499997		11.27699287		0.25691319		-0.00062959		-0.00020229		 0.00021229	
O		10.17499970		11.27699287		2.31221133		-0.00062959		-0.00020229		-0.00021229	
O		8.32499976		6.62299611		2.82603772		 0.00062959		 0.00020229		 0.00021229	
O		0.92499997		15.57299059		2.77465582		 0.00012144		 0.00006221		 0.00032477	
O		17.57499948		2.32699838		2.36359508		-0.00012144		-0.00006221		-0.00032477	
O		8.32499976		2.32699838		0.20552944		-0.00012144		-0.00006221		 0.00032477	
O		10.17499970		15.57299059		4.93271961		 0.00012144		 0.00006221		-0.00032477	
O		17.57499948		6.62299611		2.36359508		-0.00012144		 0.00006221		-0.00032477	
O		0.92499997		11.27699287		2.77465582		 0.00012144		-0.00006221		 0.00032477	
O		10.17499970		11.27699287		4.93271961		 0.00012144		-0.00006221		-0.00032477	
O		8.32499976		6.62299611		0.20552944		-0.00012144		 0.00006221		 0.00032477	
O		3.51499990		3.22199876		0.25691319		 0.00002147		 0.00017202		-0.00021888	
O		14.98499956		14.67799207		4.88133771		-0.00002147		-0.00017202		 0.00021888	
O		5.73499983		14.67799207		2.82603772		-0.00002147		-0.00017202		-0.00021888	
O		12.76499963		3.22199876		2.31221133		 0.00002147		 0.00017202		 0.00021888	
O		14.98499956		12.17199324		4.88133771		-0.00002147		 0.00017202		 0.00021888	
O		3.51499990		5.72799758		0.25691319		 0.00002147		-0.00017202		-0.00021888	
O		12.76499963		5.72799758		2.31221133		 0.00002147		-0.00017202		 0.00021888	
O		5.73499983		12.17199324		2.82603772		-0.00002147		 0.00017202		-0.00021888	
O		3.51499990		1.25299941		2.87741962		-0.00038060		 0.00030938		-0.00029640	
O		14.98499956		16.64699141		2.26082943		 0.00038060		-0.00030938		 0.00029640	
O		5.73499983		16.64699141		0.30829509		 0.00038060		-0.00030938		-0.00029640	
O		12.76499963		1.25299941		4.82995396		-0.00038060		 0.00030938		 0.00029640	
O		14.98499956		10.20299390		2.26082943		 0.00038060		 0.00030938		 0.00029640	
O		3.51499990		7.69699507		2.87741962		-0.00038060		-0.00030938		-0.00029640	
O		12.76499963		7.69699507		4.82995396		-0.00038060		-0.00030938		 0.00029640	
O		5.73499983		10.20299390		0.30829509		 0.00038060		 0.00030938		-0.00029640	
O		3.51499990		0.00000000		0.25691319		-0.00026825		-0.00043576		 0.00028923	
O		14.98499956		0.00000000		4.88133771		 0.00026825		 0.00043576		-0.00028923	
O		5.73499983		0.00000000		2.82603772		 0.00026825		 0.00043576		 0.00028923	
O		12.76499963		0.00000000		2.31221133		-0.00026825		-0.00043576		-0.00028923	
O		14.98499956		8.94999449		4.88133771		 0.00026825		-0.00043576		-0.00028923	
O		3.51499990		8.94999449		0.25691319		-0.00026825		 0.00043576		 0.00028923	
O		12.76499963		8.94999449		2.31221133		-0.00026825		 0.00043576		-0.00028923	
O		5.73499983		8.94999449		2.82603772		 0.00026825		-0.00043576		 0.00028923	
O		3.51499990		13.42499266		2.31221133		 0.00047595		-0.00000000		-0.00033778	
O		14.98499956		4.47499817		2.82603772		-0.00047595		0.00000000		 0.00033778	
O		5.73499983		4.47499817		4.88133771		-0.00047595		-0.00000000		-0.00033778	
O		12.76499963		13.42499266		0.25691319		 0.00047595		0.00000000		 0.00033778	
O		3.51499990		4.47499817		2.82603772		-0.00058102		0.00000000		-0.00061369	
O		14.98499956		13.42499266		2.31221133		 0.00058102		0.00000000		 0.00061369	
O		5.73499983		13.42499266		0.25691319		 0.00058102		0.00000000		-0.00061369	
O		12.76499963		4.47499817		4.88133771		-0.00058102		0.00000000		 0.00061369	
O		3.69999989		15.57299059		1.54147545		 0.00004659		 0.00028159		 0.00018969	
O		14.79999957		2.32699838		3.59677544		-0.00004659		-0.00028159		-0.00018969	
O		5.54999984		2.32699838		4.11059998		-0.00004659		-0.00028159		 0.00018969	
O		12.94999962		15.57299059		1.02764907		 0.00004659		 0.00028159		-0.00018969	
O		14.79999957		6.62299611		3.59677544		-0.00004659		 0.00028159		-0.00018969	
O		3.69999989		11.27699287		1.54147545		 0.00004659		-0.00028159		 0.00018969	
O		12.94999962		11.27699287		1.02764907		 0.00004659		-0.00028159		-0.00018969	
O		5.54999984		6.62299611		4.11059998		-0.00004659		 0.00028159		 0.00018969	
O		3.69999989		15.57299059		4.11059998		-0.00026834		 0.00008767		-0.00003939	
O		14.79999957		2.32699838		1.02764907		 0.00026834		-0.00008767		 0.00003939	
O		5.54999984		2.32699838		1.54147545		 0.00026834		-0.00008767		-0.00003939	
O		12.94999962		15.57299059		3.59677544		-0.00026834		 0.00008767		 0.00003939	
O		14.79999957		6.62299611		1.02764907		 0.00026834		 0.00008767		 0.00003939	
O		3.69999989		11.27699287		4.11059998		-0.00026834		-0.00008767		-0.00003939	
O		12.94999962		11.27699287		3.59677544		-0.00026834		-0.00008767		 0.00003939	
O		5.54999984		6.62299611		1.54147545		 0.00026834		 0.00008767		-0.00003939	
H		17.94500132		0.00000000		0.77073773		 0.00010839		 0.00004173		-0.00008886	
H		0.55499813		0.00000000		4.36751317		-0.00010839		-0.00004173		 0.00008886	
H		9.80499786		0.00000000		3.33986225		-0.00010839		-0.00004173		-0.00008886	
H		8.69500159		0.00000000		1.79838680		 0.00010839		 0.00004173		 0.00008886	
H		0.55499813		8.94999449		4.36751317		-0.00010839		 0.00004173		 0.00008886	
H		17.94500132		8.94999449		0.77073773		 0.00010839		-0.00004173		-0.00008886	
H		8.69500159		8.94999449		1.79838680		 0.00010839		-0.00004173		 0.00008886	
H		9.80499786		8.94999449		3.33986225		-0.00010839		 0.00004173		-0.00008886	
