# total energy = -92483.2066111 eV	

CRYSTAL	
PRIMVEC	
		18.49999946		0.00000000		0.00000000	
		0.00000000		17.89998897		0.00000000	
		0.00000000		0.00000000		4.74299286	
PRIMCOORD
   164 1	
Mg		2.40499993		3.04299831		1.80234025		-0.00025752		-0.00010337		-0.00013678	
Mg		16.09499953		14.85699066		2.94066001		 0.00025752		 0.00010337		 0.00013678	
Mg		6.84499980		14.85699066		4.17384038		 0.00025752		 0.00010337		-0.00013678	
Mg		11.65499966		3.04299831		0.56915988		-0.00025752		-0.00010337		 0.00013678	
Mg		16.09499953		11.99299280		2.94066001		 0.00025752		-0.00010337		 0.00013678	
Mg		2.40499993		5.90699618		1.80234025		-0.00025752		 0.00010337		-0.00013678	
Mg		11.65499966		5.90699618		0.56915988		-0.00025752		 0.00010337		 0.00013678	
Mg		6.84499980		11.99299280		4.17384038		 0.00025752		-0.00010337		-0.00013678	
Mg		2.40499993		1.43199986		4.12641008		 0.00007740		-0.00043538		 0.00015199	
Mg		16.09499953		16.46799097		0.61659018		-0.00007740		 0.00043538		-0.00015199	
Mg		6.84499980		16.46799097		1.75490995		-0.00007740		 0.00043538		 0.00015199	
Mg		11.65499966		1.43199986		2.98809031		 0.00007740		-0.00043538		-0.00015199	
Mg		16.09499953		10.38199435		0.61659018		-0.00007740		-0.00043538		-0.00015199	
Mg		2.40499993		7.51799648		4.12641008		 0.00007740		 0.00043538		 0.00015199	
Mg		11.65499966		7.51799648		2.98809031		 0.00007740		 0.00043538		-0.00015199	
Mg		6.84499980		10.38199435		1.75490995		-0.00007740		-0.00043538		 0.00015199	
Mg		2.40499993		17.54198994		1.80234025		 0.00031602		-0.00044714		-0.00019442	
Mg		16.09499953		0.35800089		2.94066001		-0.00031602		 0.00044714		 0.00019442	
Mg		6.84499980		0.35800089		4.17384038		-0.00031602		 0.00044714		-0.00019442	
Mg		11.65499966		17.54198994		0.56915988		 0.00031602		-0.00044714		 0.00019442	
Mg		16.09499953		8.59199545		2.94066001		-0.00031602		-0.00044714		 0.00019442	
Mg		2.40499993		9.30799538		1.80234025		 0.00031602		 0.00044714		-0.00019442	
Mg		11.65499966		9.30799538		0.56915988		 0.00031602		 0.00044714		 0.00019442	
Mg		6.84499980		8.59199545		4.17384038		-0.00031602		-0.00044714		-0.00019442	
Mg		2.40499993		4.47499817		4.12641008		 0.00004281		0.00000000		-0.00028314	
Mg		16.09499953		13.42499266		0.61659018		-0.00004281		0.00000000		 0.00028314	
Mg		6.84499980		13.42499266		1.75490995		-0.00004281		0.00000000		-0.00028314	
Mg		11.65499966		4.47499817		2.98809031		 0.00004281		0.00000000		 0.00028314	
Si		0.55499998		14.67799207		1.37546941		-0.00031687		-0.00012522		-0.00024849	
Si		17.94500132		3.22199876		3.36752900		 0.00031687		 0.00012522		 0.00024849	
Si		8.69499974		3.22199876		3.74696954		 0.00031687		 0.00012522		-0.00024849	
Si		9.80499786		14.67799207		0.99603072		-0.00031687		-0.00012522		 0.00024849	
Si		17.94500132		5.72799758		3.36752900		 0.00031687		-0.00012522		 0.00024849	
Si		0.55499998		12.17199324		1.37546941		-0.00031687		 0.00012522		-0.00024849	
Si		9.80499786		12.17199324		0.99603072		-0.00031687		 0.00012522		 0.00024849	
Si		8.69499974		5.72799758		3.74696954		 0.00031687		-0.00012522		-0.00024849	
Si		0.55499998		16.46799097		3.74696954		 0.00026138		-0.00004272		 0.00048111	
Si		17.94500132		1.43199986		0.99603072		-0.00026138		 0.00004272		-0.00048111	
Si		8.69499974		1.43199986		1.37546941		-0.00026138		 0.00004272		 0.00048111	
Si		9.80499786		16.46799097		3.36752900		 0.00026138		-0.00004272		-0.00048111	
Si		17.94500132		7.51799648		0.99603072		-0.00026138		-0.00004272		-0.00048111	
Si		0.55499998		10.38199435		3.74696954		 0.00026138		 0.00004272		 0.00048111	
Si		9.80499786		10.38199435		3.36752900		 0.00026138		 0.00004272		-0.00048111	
Si		8.69499974		7.51799648		1.37546941		-0.00026138		-0.00004272		 0.00048111	
Si		4.06999988		16.46799097		0.18971934		 0.00001604		 0.00014094		 0.00003076	
Si		14.42999773		1.43199986		4.55327907		-0.00001604		-0.00014094		-0.00003076	
Si		5.17999985		1.43199986		2.56121947		-0.00001604		-0.00014094		 0.00003076	
Si		13.32000146		16.46799097		2.18178079		 0.00001604		 0.00014094		-0.00003076	
Si		14.42999773		7.51799648		4.55327907		-0.00001604		 0.00014094		-0.00003076	
Si		4.06999988		10.38199435		0.18971934		 0.00001604		-0.00014094		 0.00003076	
Si		13.32000146		10.38199435		2.18178079		 0.00001604		-0.00014094		-0.00003076	
Si		5.17999985		7.51799648		2.56121947		-0.00001604		 0.00014094		 0.00003076	
Si		4.06999988		14.67799207		2.56121947		 0.00012318		 0.00002648		-0.00003699	
Si		14.42999773		3.22199876		2.18178079		-0.00012318		-0.00002648		 0.00003699	
Si		5.17999985		3.22199876		0.18971934		-0.00012318		-0.00002648		-0.00003699	
Si		13.32000146		14.67799207		4.55327907		 0.00012318		 0.00002648		 0.00003699	
Si		14.42999773		5.72799758		2.18178079		-0.00012318		 0.00002648		 0.00003699	
Si		4.06999988		12.17199324		2.56121947		 0.00012318		-0.00002648		-0.00003699	
Si		13.32000146		12.17199324		4.55327907		 0.00012318		-0.00002648		 0.00003699	
Si		5.17999985		5.72799758		0.18971934		-0.00012318		 0.00002648		-0.00003699	
O		1.10999997		1.25299941		0.94860042		-0.00007244		-0.00011640		 0.00007891	
O		17.38999949		16.64699141		3.79439984		 0.00007244		 0.00011640		-0.00007891	
O		8.13999976		16.64699141		3.32010055		 0.00007244		 0.00011640		 0.00007891	
O		10.35999970		1.25299941		1.42289971		-0.00007244		-0.00011640		-0.00007891	
O		17.38999949		10.20299390		3.79439984		 0.00007244		-0.00011640		-0.00007891	
O		1.10999997		7.69699507		0.94860042		-0.00007244		 0.00011640		 0.00007891	
O		10.35999970		7.69699507		1.42289971		-0.00007244		 0.00011640		-0.00007891	
O		8.13999976		10.20299390		3.32010055		 0.00007244		-0.00011640		 0.00007891	
O		1.10999997		3.22199876		3.32010055		-0.00014122		-0.00003782		 0.00017707	
O		17.38999949		14.67799207		1.42289971		 0.00014122		 0.00003782		-0.00017707	
O		8.13999976		14.67799207		0.94860042		 0.00014122		 0.00003782		 0.00017707	
O		10.35999970		3.22199876		3.79439984		-0.00014122		-0.00003782		-0.00017707	
O		17.38999949		12.17199324		1.42289971		 0.00014122		-0.00003782		-0.00017707	
O		1.10999997		5.72799758		3.32010055		-0.00014122		 0.00003782		 0.00017707	
O		10.35999970		5.72799758		3.79439984		-0.00014122		 0.00003782		-0.00017707	
O		8.13999976		12.17199324		0.94860042		 0.00014122		-0.00003782		 0.00017707	
O		1.10999997		13.42499266		0.94860042		 0.00008956		0.00000000		-0.00022085	
O		17.38999949		4.47499817		3.79439984		-0.00008956		0.00000000		 0.00022085	
O		8.13999976		4.47499817		3.32010055		-0.00008956		0.00000000		-0.00022085	
O		10.35999970		13.42499266		1.42289971		 0.00008956		0.00000000		 0.00022085	
O		1.10999997		4.47499817		0.94860042		-0.00033939		0.00000000		 0.00005293	
O		17.38999949		13.42499266		3.79439984		 0.00033939		0.00000000		-0.00005293	
O		8.13999976		13.42499266		3.32010055		 0.00033939		0.00000000		 0.00005293	
O		10.35999970		4.47499817		1.42289971		-0.00033939		-0.00000000		-0.00005293	
O		1.10999997		0.00000000		3.32010055		 0.00000097		-0.00001390		 0.00019000	
O		17.38999949		0.00000000		1.42289971		-0.00000097		 0.00001390		-0.00019000	
O		8.13999976		0.00000000		0.94860042		-0.00000097		 0.00001390		 0.00019000	
O		10.35999970		0.00000000		3.79439984		 0.00000097		-0.00001390		-0.00019000	
O		17.38999949		8.94999449		1.42289971		-0.00000097		-0.00001390		-0.00019000	
O		1.10999997		8.94999449		3.32010055		 0.00000097		 0.00001390		 0.00019000	
O		10.35999970		8.94999449		3.79439984		 0.00000097		 0.00001390		-0.00019000	
O		8.13999976		8.94999449		0.94860042		-0.00000097		-0.00001390		 0.00019000	
O		0.92499997		15.57299059		0.23714964		 0.00056255		 0.00019392		-0.00046873	
O		17.57499948		2.32699838		4.50585062		-0.00056255		-0.00019392		 0.00046873	
O		8.32499976		2.32699838		2.60864977		-0.00056255		-0.00019392		-0.00046873	
O		10.17499970		15.57299059		2.13435049		 0.00056255		 0.00019392		 0.00046873	
O		17.57499948		6.62299611		4.50585062		-0.00056255		 0.00019392		 0.00046873	
O		0.92499997		11.27699287		0.23714964		 0.00056255		-0.00019392		-0.00046873	
O		10.17499970		11.27699287		2.13435049		 0.00056255		-0.00019392		 0.00046873	
O		8.32499976		6.62299611		2.60864977		-0.00056255		 0.00019392		-0.00046873	
O		0.92499997		15.57299059		2.56121947		-0.00037024		 0.00023168		-0.00031559	
O		17.57499948		2.32699838		2.18178079		 0.00037024		-0.00023168		 0.00031559	
O		8.32499976		2.32699838		0.18971934		 0.00037024		-0.00023168		-0.00031559	
O		10.17499970		15.57299059		4.55327907		-0.00037024		 0.00023168		 0.00031559	
O		17.57499948		6.62299611		2.18178079		 0.00037024		 0.00023168		 0.00031559	
O		0.92499997		11.27699287		2.56121947		-0.00037024		-0.00023168		-0.00031559	
O		10.17499970		11.27699287		4.55327907		-0.00037024		-0.00023168		 0.00031559	
O		8.32499976		6.62299611		0.18971934		 0.00037024		 0.00023168		-0.00031559	
O		3.51499990		3.22199876		0.23714964		 0.00011935		-0.00008544		-0.00011176	
O		14.98499956		14.67799207		4.50585062		-0.00011935		 0.00008544		 0.00011176	
O		5.73499983		14.67799207		2.60864977		-0.00011935		 0.00008544		-0.00011176	
O		12.76499963		3.22199876		2.13435049		 0.00011935		-0.00008544		 0.00011176	
O		14.98499956		12.17199324		4.50585062		-0.00011935		-0.00008544		 0.00011176	
O		3.51499990		5.72799758		0.23714964		 0.00011935		 0.00008544		-0.00011176	
O		12.76499963		5.72799758		2.13435049		 0.00011935		 0.00008544		 0.00011176	
O		5.73499983		12.17199324		2.60864977		-0.00011935		-0.00008544		-0.00011176	
O		3.51499990		1.25299941		2.65608007		-0.00005638		-0.00014469		-0.00017774	
O		14.98499956		16.64699141		2.08692019		 0.00005638		 0.00014469		 0.00017774	
O		5.73499983		16.64699141		0.28457994		 0.00005638		 0.00014469		-0.00017774	
O		12.76499963		1.25299941		4.45842032		-0.00005638		-0.00014469		 0.00017774	
O		14.98499956		10.20299390		2.08692019		 0.00005638		-0.00014469		 0.00017774	
O		3.51499990		7.69699507		2.65608007		-0.00005638		 0.00014469		-0.00017774	
O		12.76499963		7.69699507		4.45842032		-0.00005638		 0.00014469		 0.00017774	
O		5.73499983		10.20299390		0.28457994		 0.00005638		-0.00014469		-0.00017774	
O		3.51499990		0.00000000		0.23714964		 0.00017415		-0.00008561		-0.00035691	
O		14.98499956		0.00000000		4.50585062		-0.00017415		 0.00008561		 0.00035691	
O		5.73499983		0.00000000		2.60864977		-0.00017415		 0.00008561		-0.00035691	
O		12.76499963		0.00000000		2.13435049		 0.00017415		-0.00008561		 0.00035691	
O		14.98499956		8.94999449		4.50585062		-0.00017415		-0.00008561		 0.00035691	
O		3.51499990		8.94999449		0.23714964		 0.00017415		 0.00008561		-0.00035691	
O		12.76499963		8.94999449		2.13435049		 0.00017415		 0.00008561		 0.00035691	
O		5.73499983		8.94999449		2.60864977		-0.00017415		-0.00008561		-0.00035691	
O		3.51499990		13.42499266		2.13435049		 0.00026998		0.00000000		-0.00065234	
O		14.98499956		4.47499817		2.60864977		-0.00026998		0.00000000		 0.00065234	
O		5.73499983		4.47499817		4.50585062		-0.00026998		0.00000000		-0.00065234	
O		12.76499963		13.42499266		0.23714964		 0.00026998		0.00000000		 0.00065234	
O		3.51499990		4.47499817		2.60864977		 0.00050863		-0.00000000		 0.00008881	
O		14.98499956		13.42499266		2.13435049		-0.00050863		0.00000000		-0.00008881	
O		5.73499983		13.42499266		0.23714964		-0.00050863		0.00000000		 0.00008881	
O		12.76499963		4.47499817		4.50585062		 0.00050863		0.00000000		-0.00008881	
O		3.69999989		15.57299059		1.42289971		 0.00001174		 0.00008128		 0.00000435	
O		14.79999957		2.32699838		3.32010055		-0.00001174		-0.00008128		-0.00000435	
O		5.54999984		2.32699838		3.79439984		-0.00001174		-0.00008128		 0.00000435	
O		12.94999962		15.57299059		0.94860042		 0.00001174		 0.00008128		-0.00000435	
O		14.79999957		6.62299611		3.32010055		-0.00001174		 0.00008128		-0.00000435	
O		3.69999989		11.27699287		1.42289971		 0.00001174		-0.00008128		 0.00000435	
O		12.94999962		11.27699287		0.94860042		 0.00001174		-0.00008128		-0.00000435	
O		5.54999984		6.62299611		3.79439984		-0.00001174		 0.00008128		 0.00000435	
O		3.69999989		15.57299059		3.79439984		 0.00053575		-0.00008255		-0.00007974	
O		14.79999957		2.32699838		0.94860042		-0.00053575		 0.00008255		 0.00007974	
O		5.54999984		2.32699838		1.42289971		-0.00053575		 0.00008255		-0.00007974	
O		12.94999962		15.57299059		3.32010055		 0.00053575		-0.00008255		 0.00007974	
O		14.79999957		6.62299611		0.94860042		-0.00053575		-0.00008255		 0.00007974	
O		3.69999989		11.27699287		3.79439984		 0.00053575		 0.00008255		-0.00007974	
O		12.94999962		11.27699287		3.32010055		 0.00053575		 0.00008255		 0.00007974	
O		5.54999984		6.62299611		1.42289971		-0.00053575		-0.00008255		-0.00007974	
H		17.94500132		0.00000000		0.71145078		-0.00013725		-0.00007797		 0.00033543	
H		0.55499813		0.00000000		4.03154948		 0.00013725		 0.00007797		-0.00033543	
H		9.80499786		0.00000000		3.08294906		 0.00013725		 0.00007797		 0.00033543	
H		8.69500159		0.00000000		1.66004935		-0.00013725		-0.00007797		-0.00033543	
H		0.55499813		8.94999449		4.03154948		 0.00013725		-0.00007797		-0.00033543	
H		17.94500132		8.94999449		0.71145078		-0.00013725		 0.00007797		 0.00033543	
H		8.69500159		8.94999449		1.66004935		-0.00013725		 0.00007797		-0.00033543	
H		9.80499786		8.94999449		3.08294906		 0.00013725		-0.00007797		 0.00033543	
