# total energy = -92488.7815007 eV	

CRYSTAL	
PRIMVEC	
		18.49999946		0.00000000		0.00000000	
		0.00000000		17.89998897		0.00000000	
		0.00000000		0.00000000		4.87474986	
PRIMCOORD
   164 1	
Mg		2.40499993		3.04299831		1.85240495		 0.00016990		 0.00006863		-0.00007667	
Mg		16.09499953		14.85699066		3.02234491		-0.00016990		-0.00006863		 0.00007667	
Mg		6.84499980		14.85699066		4.28977987		-0.00016990		-0.00006863		-0.00007667	
Mg		11.65499966		3.04299831		0.58496998		 0.00016990		 0.00006863		 0.00007667	
Mg		16.09499953		11.99299280		3.02234491		-0.00016990		 0.00006863		 0.00007667	
Mg		2.40499993		5.90699618		1.85240495		 0.00016990		-0.00006863		-0.00007667	
Mg		11.65499966		5.90699618		0.58496998		 0.00016990		-0.00006863		 0.00007667	
Mg		6.84499980		11.99299280		4.28977987		-0.00016990		 0.00006863		-0.00007667	
Mg		2.40499993		1.43199986		4.24103238		-0.00043358		 0.00023965		-0.00048369	
Mg		16.09499953		16.46799097		0.63371748		 0.00043358		-0.00023965		 0.00048369	
Mg		6.84499980		16.46799097		1.80365745		 0.00043358		-0.00023965		-0.00048369	
Mg		11.65499966		1.43199986		3.07109241		-0.00043358		 0.00023965		 0.00048369	
Mg		16.09499953		10.38199435		0.63371748		 0.00043358		 0.00023965		 0.00048369	
Mg		2.40499993		7.51799648		4.24103238		-0.00043358		-0.00023965		-0.00048369	
Mg		11.65499966		7.51799648		3.07109241		-0.00043358		-0.00023965		 0.00048369	
Mg		6.84499980		10.38199435		1.80365745		 0.00043358		 0.00023965		-0.00048369	
Mg		2.40499993		17.54198994		1.85240495		-0.00025015		 0.00030135		 0.00004847	
Mg		16.09499953		0.35800089		3.02234491		 0.00025015		-0.00030135		-0.00004847	
Mg		6.84499980		0.35800089		4.28977987		 0.00025015		-0.00030135		 0.00004847	
Mg		11.65499966		17.54198994		0.58496998		-0.00025015		 0.00030135		-0.00004847	
Mg		16.09499953		8.59199545		3.02234491		 0.00025015		 0.00030135		-0.00004847	
Mg		2.40499993		9.30799538		1.85240495		-0.00025015		-0.00030135		 0.00004847	
Mg		11.65499966		9.30799538		0.58496998		-0.00025015		-0.00030135		-0.00004847	
Mg		6.84499980		8.59199545		4.28977987		 0.00025015		 0.00030135		 0.00004847	
Mg		2.40499993		4.47499817		4.24103238		-0.00055135		0.00000000		 0.00045910	
Mg		16.09499953		13.42499266		0.63371748		 0.00055135		0.00000000		-0.00045910	
Mg		6.84499980		13.42499266		1.80365745		 0.00055135		0.00000000		 0.00045910	
Mg		11.65499966		4.47499817		3.07109241		-0.00055135		0.00000000		-0.00045910	
Si		0.55499998		14.67799207		1.41367746		 0.00037556		 0.00030457		 0.00011559	
Si		17.94500132		3.22199876		3.46107240		-0.00037556		-0.00030457		-0.00011559	
Si		8.69499974		3.22199876		3.85105239		-0.00037556		-0.00030457		 0.00011559	
Si		9.80499786		14.67799207		1.02369747		 0.00037556		 0.00030457		-0.00011559	
Si		17.94500132		5.72799758		3.46107240		-0.00037556		 0.00030457		-0.00011559	
Si		0.55499998		12.17199324		1.41367746		 0.00037556		-0.00030457		 0.00011559	
Si		9.80499786		12.17199324		1.02369747		 0.00037556		-0.00030457		-0.00011559	
Si		8.69499974		5.72799758		3.85105239		-0.00037556		 0.00030457		 0.00011559	
Si		0.55499998		16.46799097		3.85105239		 0.00007915		 0.00043238		-0.00088050	
Si		17.94500132		1.43199986		1.02369747		-0.00007915		-0.00043238		 0.00088050	
Si		8.69499974		1.43199986		1.41367746		-0.00007915		-0.00043238		-0.00088050	
Si		9.80499786		16.46799097		3.46107240		 0.00007915		 0.00043238		 0.00088050	
Si		17.94500132		7.51799648		1.02369747		-0.00007915		 0.00043238		 0.00088050	
Si		0.55499998		10.38199435		3.85105239		 0.00007915		-0.00043238		-0.00088050	
Si		9.80499786		10.38199435		3.46107240		 0.00007915		-0.00043238		 0.00088050	
Si		8.69499974		7.51799648		1.41367746		-0.00007915		 0.00043238		-0.00088050	
Si		4.06999988		16.46799097		0.19498999		 0.00002138		-0.00031136		-0.00014970	
Si		14.42999773		1.43199986		4.67975986		-0.00002138		 0.00031136		 0.00014970	
Si		5.17999985		1.43199986		2.63236492		-0.00002138		 0.00031136		-0.00014970	
Si		13.32000146		16.46799097		2.24238493		 0.00002138		-0.00031136		 0.00014970	
Si		14.42999773		7.51799648		4.67975986		-0.00002138		-0.00031136		 0.00014970	
Si		4.06999988		10.38199435		0.19498999		 0.00002138		 0.00031136		-0.00014970	
Si		13.32000146		10.38199435		2.24238493		 0.00002138		 0.00031136		 0.00014970	
Si		5.17999985		7.51799648		2.63236492		-0.00002138		-0.00031136		-0.00014970	
Si		4.06999988		14.67799207		2.63236492		 0.00013576		-0.00004809		-0.00039731	
Si		14.42999773		3.22199876		2.24238493		-0.00013576		 0.00004809		 0.00039731	
Si		5.17999985		3.22199876		0.19498999		-0.00013576		 0.00004809		-0.00039731	
Si		13.32000146		14.67799207		4.67975986		 0.00013576		-0.00004809		 0.00039731	
Si		14.42999773		5.72799758		2.24238493		-0.00013576		-0.00004809		 0.00039731	
Si		4.06999988		12.17199324		2.63236492		 0.00013576		 0.00004809		-0.00039731	
Si		13.32000146		12.17199324		4.67975986		 0.00013576		 0.00004809		 0.00039731	
Si		5.17999985		5.72799758		0.19498999		-0.00013576		-0.00004809		-0.00039731	
O		1.10999997		1.25299941		0.97494997		-0.00022764		-0.00034182		 0.00006340	
O		17.38999949		16.64699141		3.89979989		 0.00022764		 0.00034182		-0.00006340	
O		8.13999976		16.64699141		3.41232490		 0.00022764		 0.00034182		 0.00006340	
O		10.35999970		1.25299941		1.46242496		-0.00022764		-0.00034182		-0.00006340	
O		17.38999949		10.20299390		3.89979989		 0.00022764		-0.00034182		-0.00006340	
O		1.10999997		7.69699507		0.97494997		-0.00022764		 0.00034182		 0.00006340	
O		10.35999970		7.69699507		1.46242496		-0.00022764		 0.00034182		-0.00006340	
O		8.13999976		10.20299390		3.41232490		 0.00022764		-0.00034182		 0.00006340	
O		1.10999997		3.22199876		3.41232490		 0.00001002		 0.00011603		-0.00027359	
O		17.38999949		14.67799207		1.46242496		-0.00001002		-0.00011603		 0.00027359	
O		8.13999976		14.67799207		0.97494997		-0.00001002		-0.00011603		-0.00027359	
O		10.35999970		3.22199876		3.89979989		 0.00001002		 0.00011603		 0.00027359	
O		17.38999949		12.17199324		1.46242496		-0.00001002		 0.00011603		 0.00027359	
O		1.10999997		5.72799758		3.41232490		 0.00001002		-0.00011603		-0.00027359	
O		10.35999970		5.72799758		3.89979989		 0.00001002		-0.00011603		 0.00027359	
O		8.13999976		12.17199324		0.97494997		-0.00001002		 0.00011603		-0.00027359	
O		1.10999997		13.42499266		0.97494997		-0.00005983		0.00000000		 0.00035507	
O		17.38999949		4.47499817		3.89979989		 0.00005983		0.00000000		-0.00035507	
O		8.13999976		4.47499817		3.41232490		 0.00005983		-0.00000000		 0.00035507	
O		10.35999970		13.42499266		1.46242496		-0.00005983		0.00000000		-0.00035507	
O		1.10999997		4.47499817		0.97494997		-0.00006113		-0.00000000		-0.00000906	
O		17.38999949		13.42499266		3.89979989		 0.00006113		-0.00000000		 0.00000906	
O		8.13999976		13.42499266		3.41232490		 0.00006113		0.00000000		-0.00000906	
O		10.35999970		4.47499817		1.46242496		-0.00006113		0.00000000		 0.00000906	
O		1.10999997		0.00000000		3.41232490		 0.00013482		 0.00036758		 0.00006505	
O		17.38999949		0.00000000		1.46242496		-0.00013482		-0.00036758		-0.00006505	
O		8.13999976		0.00000000		0.97494997		-0.00013482		-0.00036758		 0.00006505	
O		10.35999970		0.00000000		3.89979989		 0.00013482		 0.00036758		-0.00006505	
O		17.38999949		8.94999449		1.46242496		-0.00013482		 0.00036758		-0.00006505	
O		1.10999997		8.94999449		3.41232490		 0.00013482		-0.00036758		 0.00006505	
O		10.35999970		8.94999449		3.89979989		 0.00013482		-0.00036758		-0.00006505	
O		8.13999976		8.94999449		0.97494997		-0.00013482		 0.00036758		 0.00006505	
O		0.92499997		15.57299059		0.24373749		-0.00047763		-0.00047391		 0.00009667	
O		17.57499948		2.32699838		4.63101236		 0.00047763		 0.00047391		-0.00009667	
O		8.32499976		2.32699838		2.68111242		 0.00047763		 0.00047391		 0.00009667	
O		10.17499970		15.57299059		2.19363744		-0.00047763		-0.00047391		-0.00009667	
O		17.57499948		6.62299611		4.63101236		 0.00047763		-0.00047391		-0.00009667	
O		0.92499997		11.27699287		0.24373749		-0.00047763		 0.00047391		 0.00009667	
O		10.17499970		11.27699287		2.19363744		-0.00047763		 0.00047391		-0.00009667	
O		8.32499976		6.62299611		2.68111242		 0.00047763		-0.00047391		 0.00009667	
O		0.92499997		15.57299059		2.63236492		 0.00065070		 0.00006060		 0.00013174	
O		17.57499948		2.32699838		2.24238493		-0.00065070		-0.00006060		-0.00013174	
O		8.32499976		2.32699838		0.19498999		-0.00065070		-0.00006060		 0.00013174	
O		10.17499970		15.57299059		4.67975986		 0.00065070		 0.00006060		-0.00013174	
O		17.57499948		6.62299611		2.24238493		-0.00065070		 0.00006060		-0.00013174	
O		0.92499997		11.27699287		2.63236492		 0.00065070		-0.00006060		 0.00013174	
O		10.17499970		11.27699287		4.67975986		 0.00065070		-0.00006060		-0.00013174	
O		8.32499976		6.62299611		0.19498999		-0.00065070		 0.00006060		 0.00013174	
O		3.51499990		3.22199876		0.24373749		-0.00033799		 0.00003997		-0.00023113	
O		14.98499956		14.67799207		4.63101236		 0.00033799		-0.00003997		 0.00023113	
O		5.73499983		14.67799207		2.68111242		 0.00033799		-0.00003997		-0.00023113	
O		12.76499963		3.22199876		2.19363744		-0.00033799		 0.00003997		 0.00023113	
O		14.98499956		12.17199324		4.63101236		 0.00033799		 0.00003997		 0.00023113	
O		3.51499990		5.72799758		0.24373749		-0.00033799		-0.00003997		-0.00023113	
O		12.76499963		5.72799758		2.19363744		-0.00033799		-0.00003997		 0.00023113	
O		5.73499983		12.17199324		2.68111242		 0.00033799		 0.00003997		-0.00023113	
O		3.51499990		1.25299941		2.72985992		-0.00008585		-0.00002305		-0.00004284	
O		14.98499956		16.64699141		2.14488994		 0.00008585		 0.00002305		 0.00004284	
O		5.73499983		16.64699141		0.29248499		 0.00008585		 0.00002305		-0.00004284	
O		12.76499963		1.25299941		4.58226487		-0.00008585		-0.00002305		 0.00004284	
O		14.98499956		10.20299390		2.14488994		 0.00008585		-0.00002305		 0.00004284	
O		3.51499990		7.69699507		2.72985992		-0.00008585		 0.00002305		-0.00004284	
O		12.76499963		7.69699507		4.58226487		-0.00008585		 0.00002305		 0.00004284	
O		5.73499983		10.20299390		0.29248499		 0.00008585		-0.00002305		-0.00004284	
O		3.51499990		0.00000000		0.24373749		-0.00014199		-0.00035570		 0.00019721	
O		14.98499956		0.00000000		4.63101236		 0.00014199		 0.00035570		-0.00019721	
O		5.73499983		0.00000000		2.68111242		 0.00014199		 0.00035570		 0.00019721	
O		12.76499963		0.00000000		2.19363744		-0.00014199		-0.00035570		-0.00019721	
O		14.98499956		8.94999449		4.63101236		 0.00014199		-0.00035570		-0.00019721	
O		3.51499990		8.94999449		0.24373749		-0.00014199		 0.00035570		 0.00019721	
O		12.76499963		8.94999449		2.19363744		-0.00014199		 0.00035570		-0.00019721	
O		5.73499983		8.94999449		2.68111242		 0.00014199		-0.00035570		 0.00019721	
O		3.51499990		13.42499266		2.19363744		 0.00028063		-0.00000000		-0.00030804	
O		14.98499956		4.47499817		2.68111242		-0.00028063		0.00000000		 0.00030804	
O		5.73499983		4.47499817		4.63101236		-0.00028063		0.00000000		-0.00030804	
O		12.76499963		13.42499266		0.24373749		 0.00028063		0.00000000		 0.00030804	
O		3.51499990		4.47499817		2.68111242		-0.00092331		-0.00000000		-0.00073988	
O		14.98499956		13.42499266		2.19363744		 0.00092331		0.00000000		 0.00073988	
O		5.73499983		13.42499266		0.24373749		 0.00092331		-0.00000000		-0.00073988	
O		12.76499963		4.47499817		4.63101236		-0.00092331		-0.00000000		 0.00073988	
O		3.69999989		15.57299059		1.46242496		 0.00025500		-0.00004449		 0.00001523	
O		14.79999957		2.32699838		3.41232490		-0.00025500		 0.00004449		-0.00001523	
O		5.54999984		2.32699838		3.89979989		-0.00025500		 0.00004449		 0.00001523	
O		12.94999962		15.57299059		0.97494997		 0.00025500		-0.00004449		-0.00001523	
O		14.79999957		6.62299611		3.41232490		-0.00025500		-0.00004449		-0.00001523	
O		3.69999989		11.27699287		1.46242496		 0.00025500		 0.00004449		 0.00001523	
O		12.94999962		11.27699287		0.97494997		 0.00025500		 0.00004449		-0.00001523	
O		5.54999984		6.62299611		3.89979989		-0.00025500		-0.00004449		 0.00001523	
O		3.69999989		15.57299059		3.89979989		-0.00033818		 0.00002109		-0.00006424	
O		14.79999957		2.32699838		0.97494997		 0.00033818		-0.00002109		 0.00006424	
O		5.54999984		2.32699838		1.46242496		 0.00033818		-0.00002109		-0.00006424	
O		12.94999962		15.57299059		3.41232490		-0.00033818		 0.00002109		 0.00006424	
O		14.79999957		6.62299611		0.97494997		 0.00033818		 0.00002109		 0.00006424	
O		3.69999989		11.27699287		3.89979989		-0.00033818		-0.00002109		-0.00006424	
O		12.94999962		11.27699287		3.41232490		-0.00033818		-0.00002109		 0.00006424	
O		5.54999984		6.62299611		1.46242496		 0.00033818		 0.00002109		-0.00006424	
H		17.94500132		0.00000000		0.73121248		 0.00003183		-0.00037598		 0.00031059	
H		0.55499813		0.00000000		4.14353738		-0.00003183		 0.00037598		-0.00031059	
H		9.80499786		0.00000000		3.16858741		-0.00003183		 0.00037598		 0.00031059	
H		8.69500159		0.00000000		1.70616245		 0.00003183		-0.00037598		-0.00031059	
H		0.55499813		8.94999449		4.14353738		-0.00003183		-0.00037598		-0.00031059	
H		17.94500132		8.94999449		0.73121248		 0.00003183		 0.00037598		 0.00031059	
H		8.69500159		8.94999449		1.70616245		 0.00003183		 0.00037598		-0.00031059	
H		9.80499786		8.94999449		3.16858741		-0.00003183		-0.00037598		 0.00031059	
