# total energy = -92485.0551549 eV	

CRYSTAL	
PRIMVEC	
		18.49999946		0.00000000		0.00000000	
		0.00000000		17.89998897		2.14799794	
		0.00000000		0.63240398		5.27000235	
PRIMCOORD
   164 1	
Mg		2.40499993		3.28330960		2.36775943		-0.00009402		-0.00013540		 0.00062295	
Mg		16.09499953		15.24907780		5.05023900		 0.00009402		 0.00013540		-0.00062295	
Mg		6.84499980		15.41350210		6.42043961		 0.00034152		-0.00040908		-0.00011233	
Mg		11.65499966		3.11888531		0.99756067		-0.00034152		 0.00040908		 0.00011233	
Mg		16.09499953		12.38508179		4.70655896		 0.00034152		 0.00040908		 0.00011233	
Mg		2.40499993		6.14730747		2.71143947		-0.00034152		-0.00040908		-0.00011233	
Mg		11.65499966		5.98288317		1.34124071		-0.00009402		 0.00013540		-0.00062295	
Mg		6.84499980		12.54950608		6.07675957		 0.00009402		-0.00013540		 0.00062295	
Mg		2.40499993		1.98218614		4.75674021		 0.00047023		-0.00090274		-0.00001294	
Mg		16.09499953		16.55020311		2.66125822		-0.00047023		 0.00090274		 0.00001294	
Mg		6.84499980		16.70197896		3.92605878		-0.00036504		 0.00018029		 0.00015848	
Mg		11.65499966		1.83041030		3.49193965		 0.00036504		-0.00018029		-0.00015848	
Mg		16.09499953		10.46420649		1.93093929		-0.00036504		-0.00018029		-0.00015848	
Mg		2.40499993		8.06818461		5.48705914		 0.00036504		 0.00018029		 0.00015848	
Mg		11.65499966		7.91640692		4.22225858		 0.00047023		 0.00090274		 0.00001294	
Mg		6.84499980		10.61598234		3.19573801		-0.00047023		-0.00090274		-0.00001294	
Mg		2.40499993		17.78230308		4.10763813		-0.00000711		 0.00023996		-0.00008646	
Mg		16.09499953		0.75008803		3.31036030		 0.00000711		-0.00023996		 0.00008646	
Mg		6.84499980		0.91451232		4.68055906		-0.00044371		-0.00022800		 0.00012016	
Mg		11.65499966		17.61787878		2.73743937		 0.00044371		 0.00022800		-0.00012016	
Mg		16.09499953		8.98408259		4.29843972		-0.00044371		 0.00022800		-0.00012016	
Mg		2.40499993		9.54830482		3.11955871		 0.00044371		-0.00022800		 0.00012016	
Mg		11.65499966		9.38388237		1.74935810		-0.00000711		-0.00023996		 0.00008646	
Mg		6.84499980		9.14850688		5.66863848		 0.00000711		 0.00023996		-0.00008646	
Mg		2.40499993		5.02518630		5.12190060		-0.00009280		 0.00004030		-0.00005091	
Mg		16.09499953		13.50720480		2.29609968		 0.00009280		-0.00004030		 0.00005091	
Mg		6.84499980		13.65898065		3.56089840		 0.00009280		 0.00004030		-0.00005091	
Mg		11.65499966		4.87341046		3.85710004		-0.00009280		-0.00004030		 0.00005091	
Si		0.55499998		14.86138811		3.28965880		 0.00008069		-0.00069096		-0.00009506	
Si		17.94500132		3.67100114		4.12833963		-0.00008069		 0.00069096		 0.00009506	
Si		8.69499974		3.72159309		4.54993982		 0.00017352		-0.00083131		 0.00005334	
Si		9.80499786		14.81079617		2.86805862		-0.00017352		 0.00083131		-0.00005334	
Si		17.94500132		6.17699997		4.42905897		 0.00017352		 0.00083131		-0.00005334	
Si		0.55499998		12.35538929		2.98893946		-0.00017352		-0.00083131		 0.00005334	
Si		9.80499786		12.30479734		2.56733927		 0.00008069		 0.00069096		 0.00009506	
Si		8.69499974		6.22759192		4.85065916		-0.00008069		-0.00069096		-0.00009506	
Si		0.55499998		16.96758715		6.13945792		-0.00026384		-0.00015730		 0.00013256	
Si		17.94500132		1.56480210		1.27854051		 0.00026384		 0.00015730		-0.00013256	
Si		8.69499974		1.61539405		1.70014070		 0.00000161		 0.00026563		-0.00014214	
Si		9.80499786		16.91699520		5.71785958		-0.00000161		-0.00026563		 0.00014214	
Si		17.94500132		7.65080058		2.00885944		 0.00000161		-0.00026563		 0.00014214	
Si		0.55499998		10.88159053		5.40913899		-0.00000161		 0.00026563		-0.00014214	
Si		9.80499786		10.83099858		4.98753880		-0.00026384		 0.00015730		-0.00013256	
Si		8.69499974		7.70139252		2.43045963		 0.00026384		-0.00015730		 0.00013256	
Si		4.06999988		16.49328602		2.18695894		 0.00007380		 0.00036592		 0.00009246	
Si		14.42999773		2.03910324		5.23103950		-0.00007380		-0.00036592		-0.00009246	
Si		5.17999985		1.77349505		3.01764036		-0.00028006		-0.00013712		 0.00025522	
Si		13.32000146		16.75889421		4.40035807		 0.00028006		 0.00013712		-0.00025522	
Si		14.42999773		8.12509986		5.96135843		-0.00028006		 0.00013712		-0.00025522	
Si		4.06999988		10.40728939		1.45663816		 0.00028006		-0.00013712		 0.00025522	
Si		13.32000146		10.67289759		3.67003914		 0.00007380		-0.00036592		-0.00009246	
Si		5.17999985		7.85949167		3.74795929		-0.00007380		 0.00036592		 0.00009246	
Si		4.06999988		15.01948726		4.60715846		 0.00014569		-0.00007622		 0.00048471	
Si		14.42999773		3.51290200		2.81083997		-0.00014569		 0.00007622		-0.00048471	
Si		5.17999985		3.24729380		0.59744083		-0.00040296		-0.00017991		 0.00010821	
Si		13.32000146		15.28509545		6.82055945		 0.00040296		 0.00017991		-0.00010821	
Si		14.42999773		6.01890082		3.11155931		-0.00040296		 0.00017991		-0.00010821	
Si		4.06999988		12.51348843		4.30643912		 0.00040296		-0.00017991		 0.00010821	
Si		13.32000146		12.77909663		6.51983826		 0.00014569		 0.00007622		-0.00048471	
Si		5.17999985		5.75329263		0.89816017		-0.00014569		-0.00007622		 0.00048471	
O		1.10999997		1.37947836		1.20435921		 0.00028370		 0.00008581		-0.00029747	
O		17.38999949		17.15291090		6.21363922		-0.00028370		-0.00008581		 0.00029747	
O		8.13999976		17.08967050		5.68663898		 0.00020658		-0.00003644		-0.00042400	
O		10.35999970		1.44271876		1.73135945		-0.00020658		 0.00003644		 0.00042400	
O		17.38999949		10.70891339		5.44035959		 0.00020658		 0.00003644		 0.00042400	
O		1.10999997		7.82347587		1.97764069		-0.00020658		-0.00003644		-0.00042400	
O		10.35999970		7.88671627		2.50463908		 0.00028370		-0.00008581		 0.00029747	
O		8.13999976		10.64567299		4.91335936		-0.00028370		 0.00008581		-0.00029747	
O		1.10999997		3.66467784		4.07564053		-0.00054685		-0.00016499		 0.00000120	
O		17.38999949		14.86771141		3.34235975		 0.00054685		 0.00016499		-0.00000120	
O		8.13999976		14.80447102		2.81535952		-0.00021336		-0.00033913		 0.00007248	
O		10.35999970		3.72791824		4.60264076		 0.00021336		 0.00033913		-0.00007248	
O		17.38999949		12.36171259		3.04163856		-0.00021336		 0.00033913		-0.00007248	
O		1.10999997		6.17067667		4.37635987		 0.00021336		-0.00033913		 0.00007248	
O		10.35999970		6.23391707		4.90336011		-0.00054685		 0.00016499		-0.00000120	
O		8.13999976		12.29847219		2.51463833		 0.00054685		-0.00016499		 0.00000120	
O		1.10999997		13.55147345		2.66499892		 0.00018516		-0.00043873		-0.00019993	
O		17.38999949		4.98091765		4.75299951		-0.00018516		 0.00043873		 0.00019993	
O		8.13999976		4.91767726		4.22599928		-0.00018516		-0.00043873		-0.00019993	
O		10.35999970		13.61471200		3.19199916		 0.00018516		 0.00043873		 0.00019993	
O		1.10999997		4.60147711		1.59099995		-0.00003838		 0.00036863		 0.00001099	
O		17.38999949		13.93091214		5.82699848		 0.00003838		-0.00036863		-0.00001099	
O		8.13999976		13.86767174		5.29999824		 0.00003838		 0.00036863		 0.00001099	
O		10.35999970		4.66471751		2.11800019		-0.00003838		-0.00036863		-0.00001099	
O		1.10999997		0.44267909		3.68899979		-0.00002229		-0.00008991		-0.00001235	
O		17.38999949		0.18971934		1.58100070		 0.00002229		 0.00008991		 0.00001235	
O		8.13999976		0.12648080		1.05400047		-0.00040571		 0.00006749		 0.00018833	
O		10.35999970		0.50591949		4.21600003		 0.00040571		-0.00006749		-0.00018833	
O		17.38999949		9.13971383		2.65499967		-0.00040571		-0.00006749		-0.00018833	
O		1.10999997		9.39267542		4.76299876		 0.00040571		 0.00006749		 0.00018833	
O		10.35999970		9.45591397		5.28999899		-0.00002229		 0.00008991		 0.00001235	
O		8.13999976		9.07647528		2.12799944		 0.00002229		-0.00008991		-0.00001235	
O		0.92499997		15.60461079		2.13225814		 0.00018456		-0.00014889		-0.00024729	
O		17.57499948		2.92777846		5.28574029		-0.00018456		 0.00014889		 0.00024729	
O		8.32499976		2.67481872		3.17773936		-0.00014824		-0.00017321		 0.00033768	
O		10.17499970		15.85757053		4.24025908		 0.00014824		 0.00017321		-0.00033768	
O		17.57499948		7.22377619		5.80125943		-0.00014824		 0.00017321		-0.00033768	
O		0.92499997		11.30861307		1.61673900		 0.00014824		-0.00017321		 0.00033768	
O		10.17499970		11.56157281		3.72473809		 0.00018456		 0.00014889		 0.00024729	
O		8.32499976		6.97081645		3.69326034		-0.00018456		-0.00014889		-0.00024729	
O		0.92499997		15.91448578		4.71455836		 0.00021679		-0.00028648		-0.00012359	
O		17.57499948		2.61790347		2.70344007		-0.00021679		 0.00028648		 0.00012359	
O		8.32499976		2.35229528		0.49003909		 0.00007835		-0.00012014		-0.00041146	
O		10.17499970		16.18009398		6.92795935		-0.00007835		 0.00012014		 0.00041146	
O		17.57499948		6.91389935		3.21895921		 0.00007835		 0.00012014		 0.00041146	
O		0.92499997		11.61848991		4.19903923		-0.00007835		-0.00012014		-0.00041146	
O		10.17499970		11.88409810		6.41243836		 0.00021679		 0.00028648		 0.00012359	
O		8.32499976		6.64829115		1.00556007		-0.00021679		-0.00028648		-0.00012359	
O		3.51499990		3.25361710		0.65013993		 0.00007441		 0.00018495		 0.00000351	
O		14.98499956		15.27877215		6.76785850		-0.00007441		-0.00018495		-0.00000351	
O		5.73499983		15.02581241		4.65985941		-0.00004244		-0.00022542		-0.00035818	
O		12.76499963		3.50657870		2.75813902		 0.00004244		 0.00022542		 0.00035818	
O		14.98499956		12.77277333		6.46713916		-0.00004244		 0.00022542		 0.00035818	
O		3.51499990		5.75961593		0.95085927		 0.00004244		-0.00022542		-0.00035818	
O		12.76499963		6.01257752		3.05886021		 0.00007441		-0.00018495		-0.00000351	
O		5.73499983		12.51981173		4.35913822		-0.00007441		 0.00018495		 0.00000351	
O		3.51499990		1.60714305		3.10156006		-0.00011472		 0.00028223		 0.00027350	
O		14.98499956		16.92524620		4.31643837		 0.00011472		-0.00028223		-0.00027350	
O		5.73499983		16.68493491		2.31383933		 0.00011387		-0.00008496		 0.00028876	
O		12.76499963		1.84745435		5.10415910		-0.00011387		 0.00008496		-0.00028876	
O		14.98499956		10.48125054		3.54315875		 0.00011387		 0.00008496		-0.00028876	
O		3.51499990		8.05114056		3.87483969		-0.00011387		-0.00008496		 0.00028876	
O		12.76499963		8.29145186		5.87743873		-0.00011472		-0.00028223		-0.00027350	
O		5.73499983		10.24093740		1.54055970		 0.00011472		 0.00028223		 0.00027350	
O		3.51499990		0.03162020		0.26349919		-0.00003799		 0.00014208		-0.00067663	
O		14.98499956		0.60078008		5.00649945		 0.00003799		-0.00014208		 0.00067663	
O		5.73499983		0.34782034		2.89850036		 0.00000048		 0.00013360		 0.00035368	
O		12.76499963		0.28457994		2.37150013		-0.00000048		-0.00013360		-0.00035368	
O		14.98499956		9.55077457		6.08049842		 0.00000048		-0.00013360		-0.00035368	
O		3.51499990		8.98161469		1.33749816		-0.00000048		 0.00013360		 0.00035368	
O		12.76499963		9.23457443		3.44549910		-0.00003799		-0.00014208		 0.00067663	
O		5.73499983		9.29781483		3.97249933		 0.00003799		 0.00014208		-0.00067663	
O		3.51499990		13.70957260		3.98249858		 0.00024974		 0.00010246		-0.00004255	
O		14.98499956		4.82281851		3.43549985		-0.00024974		-0.00010246		 0.00004255	
O		5.73499983		5.07577825		5.54349894		-0.00024974		 0.00010246		-0.00004255	
O		12.76499963		13.45661286		1.87449949		 0.00024974		-0.00010246		 0.00004255	
O		3.51499990		4.82281851		3.43549985		 0.00004413		 0.00005421		-0.00060034	
O		14.98499956		13.70957260		3.98249858		-0.00004413		-0.00005421		 0.00060034	
O		5.73499983		13.45661286		1.87449949		-0.00004413		 0.00005421		-0.00060034	
O		12.76499963		5.07577825		5.54349894		 0.00004413		-0.00005421		 0.00060034	
O		3.69999989		15.76270994		3.44975965		-0.00003469		 0.00007820		-0.00024288	
O		14.79999957		2.76967932		3.96824063		 0.00003469		-0.00007820		 0.00024288	
O		5.54999984		2.83291972		4.49523902		-0.00003015		-0.00032635		 0.00014837	
O		12.94999962		15.69947139		2.92275941		 0.00003015		 0.00032635		-0.00014837	
O		14.79999957		7.06567519		4.48375977		-0.00003015		 0.00032635		-0.00014837	
O		3.69999989		11.46671406		2.93423866		 0.00003015		-0.00032635		 0.00014837	
O		12.94999962		11.40347367		2.40723843		-0.00003469		-0.00007820		 0.00024288	
O		5.54999984		7.12891559		5.01076000		 0.00003469		 0.00007820		-0.00024288	
O		3.69999989		16.07891008		6.08475897		 0.00014209		-0.00041496		 0.00078837	
O		14.79999957		2.45347918		1.33323946		-0.00014209		 0.00041496		-0.00078837	
O		5.54999984		2.51671958		1.86023970		-0.00019566		 0.00015298		 0.00016399	
O		12.94999962		16.01566968		5.55775874		 0.00019566		-0.00015298		-0.00016399	
O		14.79999957		6.74947505		1.84876045		-0.00019566		-0.00015298		-0.00016399	
O		3.69999989		11.78291420		5.56923799		 0.00019566		 0.00015298		 0.00016399	
O		12.94999962		11.71967381		5.04223960		 0.00014209		 0.00041496		-0.00078837	
O		5.54999984		6.81271545		2.37576068		-0.00014209		-0.00041496		 0.00078837	
H		17.94500132		0.09486060		0.79049943		-0.00011270		 0.00011129		-0.00012700	
H		0.55499813		0.53753968		4.47949922		 0.00011270		-0.00011129		 0.00012700	
H		9.80499786		0.41106074		3.42550060		 0.00022448		 0.00011721		-0.00025987	
H		8.69500159		0.22133954		1.84449990		-0.00022448		-0.00011721		 0.00025987	
H		0.55499813		9.48753417		5.55350004		 0.00022448		-0.00011721		 0.00025987	
H		17.94500132		9.04485508		1.86449840		-0.00022448		 0.00011721		-0.00025987	
H		8.69500159		9.17133403		2.91849886		-0.00011270		-0.00011129		 0.00012700	
H		9.80499786		9.36105523		4.49949957		 0.00011270		 0.00011129		-0.00012700	
