# total energy = -92477.6982331 eV	

CRYSTAL	
PRIMVEC	
		18.49999946		0.00000000		0.00000000	
		0.00000000		17.89998897		-2.86400342	
		0.00000000		-0.84319298		5.27000235	
PRIMCOORD
   164 1	
Mg		2.40499993		2.72258202		1.51571976		-0.00039802		 0.00043433		 0.00100884	
Mg		16.09499953		14.33420658		0.89028102		 0.00039802		-0.00043433		-0.00100884	
Mg		6.84499980		14.11497419		2.26048163		 0.00086383		-0.00027542		-0.00001946	
Mg		11.65499966		2.94181441		0.14551915		-0.00086383		 0.00027542		 0.00001946	
Mg		16.09499953		11.47021056		1.34852046		 0.00086383		 0.00027542		 0.00001946	
Mg		2.40499993		5.58657989		1.05748032		-0.00086383		-0.00027542		-0.00001946	
Mg		11.65499966		5.80581228		-0.31271844		-0.00039802		-0.00043433		-0.00100884	
Mg		6.84499980		11.25097817		2.71872107		 0.00039802		 0.00043433		 0.00100884	
Mg		2.40499993		0.69841568		4.35578047		-0.00047596		-0.00036195		 0.00045254	
Mg		16.09499953		16.35837477		-1.94977969		 0.00047596		 0.00036195		-0.00045254	
Mg		6.84499980		16.15600698		-0.68497913		-0.00103539		 0.00040970		-0.00030016	
Mg		11.65499966		0.90078347		3.09097991		 0.00103539		-0.00040970		 0.00030016	
Mg		16.09499953		10.27237815		-0.97601927		-0.00103539		-0.00040970		 0.00030016	
Mg		2.40499993		6.78441230		3.38202005		 0.00103539		 0.00040970		-0.00030016	
Mg		11.65499966		6.98678009		2.11722134		-0.00047596		 0.00036195		-0.00045254	
Mg		6.84499980		10.07001035		0.28878129		 0.00047596		-0.00036195		 0.00045254	
Mg		2.40499993		17.22157364		-0.80411913		 0.00085081		-0.00026793		-0.00012203	
Mg		16.09499953		-0.16478320		3.21011991		-0.00085081		 0.00026793		 0.00012203	
Mg		6.84499980		-0.38401559		4.58032052		-0.00083942		 0.00061808		-0.00028741	
Mg		11.65499966		17.44080604		-2.17431789		 0.00083942		-0.00061808		 0.00028741	
Mg		16.09499953		8.06921136		1.89268129		-0.00083942		-0.00061808		 0.00028741	
Mg		2.40499993		8.98757909		0.51332133		 0.00083942		 0.00061808		-0.00028741	
Mg		11.65499966		9.20680963		-0.85687927		 0.00085081		 0.00026793		 0.00012203	
Mg		6.84499980		7.84997897		3.26288005		-0.00085081		-0.00026793		-0.00012203	
Mg		2.40499993		3.74141399		3.86889934		 0.00091791		 0.00069626		-0.00050989	
Mg		16.09499953		13.31537646		-1.46289856		-0.00091791		-0.00069626		 0.00050989	
Mg		6.84499980		13.11300867		-0.19809984		-0.00091791		 0.00069626		-0.00050989	
Mg		11.65499966		3.94378178		2.60410062		 0.00091791		-0.00069626		 0.00050989	
Si		0.55499998		14.43346278		-0.82017898		 0.00053098		 0.00019162		-0.00016680	
Si		17.94500132		2.62332582		3.22617976		-0.00053098		-0.00019162		 0.00016680	
Si		8.69499974		2.55586927		3.64777994		 0.00044161		-0.00024252		-0.00034923	
Si		9.80499786		14.50091932		-1.24177916		-0.00044161		 0.00024252		 0.00034923	
Si		17.94500132		5.12932465		2.82522002		 0.00044161		 0.00024252		 0.00034923	
Si		0.55499998		11.92746395		-0.41921924		-0.00044161		-0.00024252		-0.00034923	
Si		9.80499786		11.99492050		-0.84081943		 0.00053098		-0.00019162		 0.00016680	
Si		8.69499974		5.06186810		3.24682020		-0.00053098		 0.00019162		-0.00016680	
Si		0.55499998		15.80186334		1.52842186		-0.00042867		 0.00019174		 0.00007904	
Si		17.94500132		1.25492711		0.87758077		 0.00042867		-0.00019174		-0.00007904	
Si		8.69499974		1.18747057		1.29917911		 0.00083081		 0.00025035		-0.00029065	
Si		9.80499786		15.86931803		1.10682167		-0.00083081		-0.00025035		 0.00029065	
Si		17.94500132		7.34092373		-0.09617965		 0.00083081		-0.00025035		 0.00029065	
Si		0.55499998		9.71586486		2.50218043		-0.00083081		 0.00025035		-0.00029065	
Si		9.80499786		9.78332141		2.08058024		-0.00042867		-0.00019174		-0.00007904	
Si		8.69499974		7.27346719		0.32542054		 0.00042867		 0.00019174		 0.00007904	
Si		4.06999988		16.43426177		-2.42407898		-0.00113219		 0.00036852		-0.00012128	
Si		14.42999773		0.62252683		4.83007976		 0.00113219		-0.00036852		 0.00012128	
Si		5.17999985		0.97667047		2.61668062		 0.00055716		-0.00023702		-0.00030374	
Si		13.32000146		16.08011813		-0.21067984		-0.00055716		 0.00023702		 0.00030374	
Si		14.42999773		6.70852345		3.85631934		 0.00055716		 0.00023702		 0.00030374	
Si		4.06999988		10.34826515		-1.45031856		-0.00055716		-0.00023702		-0.00030374	
Si		13.32000146		9.99412151		0.76308058		-0.00113219		-0.00036852		 0.00012128	
Si		5.17999985		7.06266709		1.64292020		 0.00113219		 0.00036852		-0.00012128	
Si		4.06999988		14.22266268		0.49732069		-0.00068199		-0.00029873		-0.00045553	
Si		14.42999773		2.83412592		1.90868009		 0.00068199		 0.00029873		 0.00045553	
Si		5.17999985		3.18826956		-0.30472089		 0.00057979		-0.00042738		-0.00032344	
Si		13.32000146		13.86851904		2.71072167		-0.00057979		 0.00042738		 0.00032344	
Si		14.42999773		5.34012474		1.50772036		 0.00057979		 0.00042738		 0.00032344	
Si		4.06999988		11.71666386		0.89828042		-0.00057979		-0.00042738		-0.00032344	
Si		13.32000146		11.36252022		3.11168141		-0.00068199		 0.00029873		 0.00045553	
Si		5.17999985		5.69426838		-0.70568063		 0.00068199		-0.00029873		-0.00045553	
O		1.10999997		1.08435897		0.85351967		-0.00003154		-0.00013813		 0.00016664	
O		17.38999949		15.97242963		1.55248110		 0.00003154		 0.00013813		-0.00016664	
O		8.13999976		16.05675078		1.02548087		-0.00071146		-0.00007563		 0.00081750	
O		10.35999970		1.00003967		1.38051991		 0.00071146		 0.00007563		-0.00081750	
O		17.38999949		9.52843397		2.58352122		-0.00071146		 0.00007563		-0.00081750	
O		1.10999997		7.52835648		-0.17751859		 0.00071146		-0.00007563		 0.00081750	
O		10.35999970		7.44403533		0.34948164		-0.00003154		 0.00013813		-0.00016664	
O		8.13999976		9.61275327		2.05652099		 0.00003154		-0.00013813		 0.00016664	
O		1.10999997		2.63175812		3.17348066		 0.00037286		-0.00016924		 0.00107240	
O		17.38999949		14.42503233		-0.76747988		-0.00037286		 0.00016924		-0.00107240	
O		8.13999976		14.50935162		-1.29447826		 0.00030816		 0.00109884		 0.00017077	
O		10.35999970		2.54743883		3.70047904		-0.00030816		-0.00109884		-0.00017077	
O		17.38999949		11.91903350		-0.36651829		 0.00030816		-0.00109884		-0.00017077	
O		1.10999997		5.13775695		2.77251907		-0.00030816		 0.00109884		 0.00017077	
O		10.35999970		5.05343765		3.29952115		 0.00037286		 0.00016924		-0.00107240	
O		8.13999976		12.00335280		-0.89351852		-0.00037286		-0.00016924		 0.00107240	
O		1.10999997		13.25635221		-1.09399932		-0.00163318		 0.00114605		 0.00057753	
O		17.38999949		3.80043824		3.50000010		 0.00163318		-0.00114605		-0.00057753	
O		8.13999976		3.88475754		2.97299986		 0.00163318		 0.00114605		 0.00057753	
O		10.35999970		13.17203291		-0.56699908		-0.00163318		-0.00114605		-0.00057753	
O		1.10999997		4.30635772		0.33800054		-0.00021387		-0.00033679		 0.00094466	
O		17.38999949		12.75043273		2.06800024		 0.00021387		 0.00033679		-0.00094466	
O		8.13999976		12.83475202		1.54100185		 0.00021387		-0.00033679		 0.00094466	
O		10.35999970		4.22203843		0.86500077		-0.00021387		 0.00033679		-0.00094466	
O		1.10999997		-0.59024063		3.68899979		 0.00011499		 0.00004926		 0.00059276	
O		17.38999949		-0.25295974		1.58100070		-0.00011499		-0.00004926		-0.00059276	
O		8.13999976		-0.16864045		1.05400047		 0.00098514		 0.00069695		-0.00016860	
O		10.35999970		-0.67455993		4.21600003		-0.00098514		-0.00069695		 0.00016860	
O		17.38999949		8.69703474		0.14900085		 0.00098514		-0.00069695		 0.00016860	
O		1.10999997		8.35975385		2.25700178		-0.00098514		 0.00069695		-0.00016860	
O		10.35999970		8.27543456		2.78400017		 0.00011499		-0.00004926		-0.00059276	
O		8.13999976		8.78135404		-0.37799939		-0.00011499		 0.00004926		 0.00059276	
O		0.92499997		15.53083094		-2.22817878		-0.00053881		-0.00018764		-0.00093095	
O		17.57499948		1.52595951		4.63417956		 0.00053881		 0.00018764		 0.00093095	
O		8.32499976		1.86323855		2.52618048		 0.00019885		-0.00005629		 0.00071706	
O		10.17499970		15.19355005		-0.12017970		-0.00019885		 0.00005629		-0.00071706	
O		17.57499948		5.82195538		3.94681948		 0.00019885		 0.00005629		-0.00071706	
O		0.92499997		11.23483322		-1.54081870		-0.00019885		-0.00005629		 0.00071706	
O		10.17499970		10.89755418		0.56718038		-0.00053881		 0.00018764		 0.00093095	
O		8.32499976		6.15923627		1.83882040		 0.00053881		-0.00018764		-0.00093095	
O		0.92499997		15.11766306		0.35412144		-0.00008033		-0.00019127		 0.00008491	
O		17.57499948		1.93912739		2.05187934		 0.00008033		 0.00019127		-0.00008491	
O		8.32499976		2.29327103		-0.16151980		 0.00021080		-0.00015799		-0.00037907	
O		10.17499970		14.76351942		2.56752242		-0.00021080		 0.00015799		 0.00037907	
O		17.57499948		6.23512327		1.36452111		 0.00021080		 0.00015799		 0.00037907	
O		0.92499997		10.82166533		1.04148152		-0.00021080		-0.00015799		-0.00037907	
O		10.17499970		10.46752169		3.25488065		-0.00008033		 0.00019127		-0.00008491	
O		8.32499976		6.58926691		-0.84887988		 0.00008033		-0.00019127		 0.00008491	
O		3.51499990		3.17983726		-0.25201994		 0.00039663		-0.00011873		 0.00006592	
O		14.98499956		13.87695134		2.65802072		-0.00039663		 0.00011873		-0.00006592	
O		5.73499983		14.21423223		0.55002163		-0.00007775		 0.00016201		-0.00114799	
O		12.76499963		2.84255822		1.85597915		 0.00007775		-0.00016201		 0.00114799	
O		14.98499956		11.37095252		3.05898046		-0.00007775		-0.00016201		 0.00114799	
O		3.51499990		5.68583608		-0.65297968		 0.00007775		 0.00016201		-0.00114799	
O		12.76499963		5.34855704		1.45501941		 0.00039663		 0.00011873		-0.00006592	
O		5.73499983		11.70823341		0.95098137		-0.00039663		-0.00011873		 0.00006592	
O		3.51499990		0.78080728		2.75072052		 0.00053970		 0.00055155		-0.00062735	
O		14.98499956		16.27598317		-0.34471974		-0.00053970		-0.00055155		 0.00062735	
O		5.73499983		16.59639761		-2.34731878		-0.00089372		-0.00064176		 0.00142112	
O		12.76499963		0.46039099		4.75331956		 0.00089372		 0.00064176		-0.00142112	
O		14.98499956		9.83198566		0.68632038		-0.00089372		 0.00064176		-0.00142112	
O		3.51499990		7.22480294		1.71968040		 0.00089372		-0.00064176		 0.00142112	
O		12.76499963		6.90438850		3.72228129		 0.00053970		-0.00055155		 0.00062735	
O		5.73499983		10.15240195		-1.31627866		-0.00053970		 0.00055155		-0.00062735	
O		3.51499990		-0.04215965		0.26349919		-0.00027435		 0.00115716		 0.00035337	
O		14.98499956		-0.80104073		5.00649945		 0.00027435		-0.00115716		-0.00035337	
O		5.73499983		-0.46375984		2.89850036		 0.00095262		-0.00040379		 0.00079972	
O		12.76499963		-0.37944054		2.37150013		-0.00095262		 0.00040379		-0.00079972	
O		14.98499956		8.14895561		3.57450145		 0.00095262		 0.00040379		-0.00079972	
O		3.51499990		8.90783484		-1.16849882		-0.00095262		-0.00040379		 0.00079972	
O		12.76499963		8.57055395		0.93950027		-0.00027435		-0.00115716		-0.00035337	
O		5.73499983		8.48623465		1.46650051		 0.00027435		 0.00115716		 0.00035337	
O		3.51499990		13.04555212		0.22350034		-0.00025321		 0.00015669		-0.00036831	
O		14.98499956		4.01123833		2.18250044		 0.00025321		-0.00015669		 0.00036831	
O		5.73499983		3.67395744		4.29049952		 0.00025321		 0.00015669		-0.00036831	
O		12.76499963		13.38283301		-1.88449874		-0.00025321		-0.00015669		 0.00036831	
O		3.51499990		4.01123833		2.18250044		 0.00074946		-0.00078927		-0.00022359	
O		14.98499956		13.04555212		0.22350034		-0.00074946		 0.00078927		 0.00022359	
O		5.73499983		13.38283301		-1.88449874		-0.00074946		-0.00078927		-0.00022359	
O		12.76499963		3.67395744		4.29049952		 0.00074946		 0.00078927		 0.00022359	
O		3.69999989		15.32003085		-0.91067912		 0.00073321		 0.00058926		-0.00025462	
O		14.79999957		1.73675960		3.31667990		-0.00073321		-0.00058926		 0.00025462	
O		5.54999984		1.65243845		3.84368014		 0.00001104		 0.00006216		-0.00010710	
O		12.94999962		15.40435015		-1.43767936		-0.00001104		-0.00006216		 0.00010710	
O		14.79999957		6.03275547		2.62931982		 0.00001104		-0.00006216		 0.00010710	
O		3.69999989		11.02403313		-0.22331904		-0.00001104		 0.00006216		-0.00010710	
O		12.94999962		11.10835427		-0.75031928		 0.00073321		-0.00058926		 0.00025462	
O		5.54999984		5.94843618		3.15632006		-0.00073321		 0.00058926		-0.00025462	
O		3.69999989		14.89843066		1.72432020		-0.00011872		 0.00059658		 0.00043867	
O		14.79999957		2.15835979		0.68168058		 0.00011872		-0.00059658		-0.00043867	
O		5.54999984		2.07403864		1.20868081		 0.00033233		 0.00022273		 0.00030217	
O		12.94999962		14.98274996		1.19732181		-0.00033233		-0.00022273		-0.00030217	
O		14.79999957		6.45435566		-0.00567950		 0.00033233		-0.00022273		-0.00030217	
O		3.69999989		10.60243294		2.41168028		-0.00033233		 0.00022273		 0.00030217	
O		12.94999962		10.68675409		1.88468004		-0.00011872		-0.00059658		-0.00043867	
O		5.54999984		6.37003636		0.52132073		 0.00011872		 0.00059658		 0.00043867	
H		17.94500132		-0.12648080		0.79049943		 0.00038065		-0.00000978		-0.00030411	
H		0.55499813		-0.71671958		4.47949922		-0.00038065		 0.00000978		 0.00030411	
H		9.80499786		-0.54807913		3.42550060		 0.00044523		-0.00082320		-0.00060856	
H		8.69500159		-0.29511939		1.84449990		-0.00044523		 0.00082320		 0.00060856	
H		0.55499813		8.23327491		3.04750121		 0.00044523		 0.00082320		 0.00060856	
H		17.94500132		8.82351554		-0.64149858		-0.00044523		-0.00082320		-0.00060856	
H		8.69500159		8.65487510		0.41250189		 0.00038065		 0.00000978		 0.00030411	
H		9.80499786		8.40191535		1.99350074		-0.00038065		-0.00000978		-0.00030411	
