# total energy = -92485.0551528 eV	

CRYSTAL	
PRIMVEC	
		18.49999946		0.00000000		0.00000000	
		0.00000000		17.89998897		-2.14799794	
		0.00000000		-0.63240398		5.27000235	
PRIMCOORD
   164 1	
Mg		2.40499993		2.80268517		1.63744050		-0.00034183		 0.00040860		-0.00011175	
Mg		16.09499953		14.46490168		1.48456021		 0.00034183		-0.00040860		 0.00011175	
Mg		6.84499980		14.30047923		2.85476082		 0.00009417		 0.00013598		 0.00062377	
Mg		11.65499966		2.96710946		0.26723989		-0.00009417		-0.00013598		-0.00062377	
Mg		16.09499953		11.60090566		1.82824025		 0.00009417		-0.00013598		-0.00062377	
Mg		2.40499993		5.66668303		1.29376046		-0.00009417		 0.00013598		 0.00062377	
Mg		11.65499966		5.83110733		-0.07644015		-0.00034183		-0.00040860		 0.00011175	
Mg		6.84499980		11.43648136		3.19844086		 0.00034183		 0.00040860		-0.00011175	
Mg		2.40499993		0.88181172		4.41306017		 0.00036365		-0.00018111		 0.00015772	
Mg		16.09499953		16.38577882		-1.29105946		-0.00036365		 0.00018111		-0.00015772	
Mg		6.84499980		16.23400297		-0.02625890		-0.00047173		 0.00090359		-0.00001225	
Mg		11.65499966		1.03358757		3.14825961		 0.00047173		-0.00090359		 0.00001225	
Mg		16.09499953		10.29978220		-0.56073868		-0.00047173		-0.00090359		 0.00001225	
Mg		2.40499993		6.96780835		3.68273939		 0.00047173		 0.00090359		-0.00001225	
Mg		11.65499966		7.11958419		2.41794068		 0.00036365		 0.00018111		-0.00015772	
Mg		6.84499980		10.14800635		0.70406188		-0.00036365		-0.00018111		 0.00015772	
Mg		2.40499993		17.30167864		-0.10243820		 0.00044242		 0.00022813		 0.00012097	
Mg		16.09499953		-0.03408810		3.22444076		-0.00044242		-0.00022813		-0.00012097	
Mg		6.84499980		-0.19851239		4.59463952		 0.00000712		-0.00023939		-0.00008748	
Mg		11.65499966		17.46610294		-1.47263881		-0.00000712		 0.00023939		 0.00008748	
Mg		16.09499953		8.19990646		2.23636133		 0.00000712		 0.00023939		 0.00008748	
Mg		2.40499993		9.06768223		0.88564122		-0.00000712		-0.00023939		-0.00008748	
Mg		11.65499966		9.23210653		-0.48455939		 0.00044242		-0.00022813		-0.00012097	
Mg		6.84499980		8.03548216		3.60656009		-0.00044242		 0.00022813		 0.00012097	
Mg		2.40499993		3.92481003		4.04789978		-0.00009301		-0.00004014		-0.00005221	
Mg		16.09499953		13.34278051		-0.92589907		 0.00009301		 0.00004014		 0.00005221	
Mg		6.84499980		13.19100466		0.33890149		 0.00009301		-0.00004014		-0.00005221	
Mg		11.65499966		4.07658588		2.78309922		-0.00009301		 0.00004014		 0.00005221	
Si		0.55499998		14.49459602		-0.23305929		-0.00017370		 0.00083133		 0.00005206	
Si		17.94500132		2.77299452		3.35506000		 0.00017370		-0.00083133		-0.00005206	
Si		8.69499974		2.72240257		3.77666019		-0.00008027		 0.00069246		-0.00009649	
Si		9.80499786		14.54518797		-0.65465948		 0.00008027		-0.00069246		 0.00009649	
Si		17.94500132		5.27899335		3.05434066		-0.00008027		-0.00069246		 0.00009649	
Si		0.55499998		11.98859720		0.06766190		 0.00008027		 0.00069246		-0.00009649	
Si		9.80499786		12.03918915		-0.35393829		-0.00017370		-0.00083133		-0.00005206	
Si		8.69499974		5.22840140		3.47593900		 0.00017370		 0.00083133		 0.00005206	
Si		0.55499998		15.96839478		2.18714024		-0.00000230		-0.00026569		-0.00014266	
Si		17.94500132		1.29919576		0.93486047		 0.00000230		 0.00026569		 0.00014266	
Si		8.69499974		1.24860381		1.35646066		 0.00026422		 0.00015690		 0.00013330	
Si		9.80499786		16.01898673		1.76554005		-0.00026422		-0.00015690		-0.00013330	
Si		17.94500132		7.38519238		0.20453969		 0.00026422		-0.00015690		-0.00013330	
Si		0.55499998		9.88239816		2.91746101		-0.00026422		 0.00015690		 0.00013330	
Si		9.80499786		9.93299011		2.49586083		-0.00000230		 0.00026569		 0.00014266	
Si		8.69499974		7.33460043		0.62614173		 0.00000230		-0.00026569		-0.00014266	
Si		4.06999988		16.44269407		-1.76535875		 0.00028077		 0.00013693		 0.00025549	
Si		14.42999773		0.82489463		4.88735946		-0.00028077		-0.00013693		-0.00025549	
Si		5.17999985		1.09050282		2.67396032		-0.00007268		-0.00036673		 0.00009268	
Si		13.32000146		16.17708588		0.44804039		 0.00007268		 0.00036673		-0.00009268	
Si		14.42999773		6.91089125		4.15704053		-0.00007268		 0.00036673		-0.00009268	
Si		4.06999988		10.35669745		-1.03503982		 0.00007268		-0.00036673		 0.00009268	
Si		13.32000146		10.09108925		1.17836117		 0.00028077		-0.00013693		-0.00025549	
Si		5.17999985		7.17649944		1.94364139		-0.00028077		 0.00013693		 0.00025549	
Si		4.06999988		14.33649503		1.08444037		 0.00040211		 0.00017864		 0.00010870	
Si		14.42999773		2.93109366		2.03756034		-0.00040211		-0.00017864		-0.00010870	
Si		5.17999985		3.19670186		-0.17584064		-0.00014521		 0.00007649		 0.00048509	
Si		13.32000146		14.07088684		3.29784135		 0.00014521		-0.00007649		-0.00048509	
Si		14.42999773		5.43709249		1.73683915		-0.00014521		-0.00007649		-0.00048509	
Si		4.06999988		11.83049620		1.38516156		 0.00014521		 0.00007649		 0.00048509	
Si		13.32000146		11.56488801		3.59856069		 0.00040211		-0.00017864		-0.00010870	
Si		5.17999985		5.70270068		-0.47655999		-0.00040211		 0.00017864		 0.00010870	
O		1.10999997		1.12651862		0.90363987		-0.00020728		 0.00003633		-0.00042329	
O		17.38999949		16.14107008		2.21836083		 0.00020728		-0.00003633		 0.00042329	
O		8.13999976		16.20431047		1.69136060		-0.00028441		-0.00008634		-0.00029754	
O		10.35999970		1.06327822		1.43064011		 0.00028441		 0.00008634		 0.00029754	
O		17.38999949		9.69707442		2.99164046		-0.00028441		 0.00008634		 0.00029754	
O		1.10999997		7.57051613		0.13036025		 0.00028441		-0.00008634		-0.00029754	
O		10.35999970		7.50727573		0.65736048		-0.00020728		-0.00003633		 0.00042329	
O		8.13999976		9.76031296		2.46464023		 0.00020728		 0.00003633		-0.00042329	
O		1.10999997		2.77931782		3.30235905		 0.00021204		 0.00033858		 0.00007009	
O		17.38999949		14.48827087		-0.18035834		-0.00021204		-0.00033858		-0.00007009	
O		8.13999976		14.55151127		-0.70735858		 0.00054687		 0.00016583		-0.00000008	
O		10.35999970		2.71607742		3.82935929		-0.00054687		-0.00016583		 0.00000008	
O		17.38999949		11.98227205		0.12036100		 0.00054687		-0.00016583		 0.00000008	
O		1.10999997		5.28531664		3.00163971		-0.00054687		 0.00016583		-0.00000008	
O		10.35999970		5.22207625		3.52863995		 0.00021204		-0.00033858		-0.00007009	
O		8.13999976		12.04551245		-0.40663924		-0.00021204		 0.00033858		 0.00007009	
O		1.10999997		13.29851186		-0.55699983		 0.00018479		 0.00044153		-0.00019951	
O		17.38999949		3.96907868		3.67900054		-0.00018479		-0.00044153		 0.00019951	
O		8.13999976		4.03231723		3.15200031		-0.00018479		 0.00044153		-0.00019951	
O		10.35999970		13.23527331		-0.02999960		 0.00018479		-0.00044153		 0.00019951	
O		1.10999997		4.34851737		0.51699913		-0.00003900		-0.00036749		 0.00001162	
O		17.38999949		12.91907317		2.60500157		 0.00003900		 0.00036749		-0.00001162	
O		8.13999976		12.98231172		2.07800134		 0.00003900		-0.00036749		 0.00001162	
O		10.35999970		4.28527697		1.04399937		-0.00003900		 0.00036749		-0.00001162	
O		1.10999997		-0.44267909		3.68899979		 0.00040883		-0.00006984		 0.00019013	
O		17.38999949		-0.18971934		1.58100070		-0.00040883		 0.00006984		-0.00019013	
O		8.13999976		-0.12648080		1.05400047		 0.00002236		 0.00008913		-0.00001206	
O		10.35999970		-0.50591949		4.21600003		-0.00002236		-0.00008913		 0.00001206	
O		17.38999949		8.76027514		0.50700174		 0.00002236		-0.00008913		 0.00001206	
O		1.10999997		8.50731540		2.61500082		-0.00002236		 0.00008913		-0.00001206	
O		10.35999970		8.44407500		3.14200106		 0.00040883		 0.00006984		-0.00019013	
O		8.13999976		8.82351554		-0.01999850		-0.00040883		-0.00006984		 0.00019013	
O		0.92499997		15.54137039		-1.60525975		 0.00014843		 0.00017327		 0.00033737	
O		17.57499948		1.72621830		4.72726046		-0.00014843		-0.00017327		-0.00033737	
O		8.32499976		1.97917804		2.61925952		-0.00018618		 0.00014802		-0.00024684	
O		10.17499970		15.28841065		0.50274119		 0.00018618		-0.00014802		 0.00024684	
O		17.57499948		6.02221602		4.21173948		-0.00018618		-0.00014802		 0.00024684	
O		0.92499997		11.24537452		-1.08973877		 0.00018618		 0.00014802		-0.00024684	
O		10.17499970		10.99241293		1.01826032		 0.00014843		-0.00017327		-0.00033737	
O		8.32499976		6.27517577		2.10374039		-0.00014843		 0.00017327		 0.00033737	
O		0.92499997		15.23149540		0.97704047		-0.00007980		 0.00011831		-0.00041160	
O		17.57499948		2.03609514		2.14496024		 0.00007980		-0.00011831		 0.00041160	
O		8.32499976		2.30170333		-0.06844075		-0.00021770		 0.00028669		-0.00012434	
O		10.17499970		14.96588721		3.19044146		 0.00021770		-0.00028669		 0.00012434	
O		17.57499948		6.33209101		1.62943925		-0.00021770		-0.00028669		 0.00012434	
O		0.92499997		10.93549768		1.49256146		 0.00021770		 0.00028669		-0.00012434	
O		10.17499970		10.66988949		3.70596059		-0.00007980		-0.00011831		 0.00041160	
O		8.32499976		6.59769921		-0.58395988		 0.00007980		 0.00011831		-0.00041160	
O		3.51499990		3.19037856		-0.12313970		 0.00004310		 0.00022516		-0.00035745	
O		14.98499956		14.07721199		3.24514040		-0.00004310		-0.00022516		 0.00035745	
O		5.73499983		14.33017173		1.13714132		-0.00007512		-0.00018445		 0.00000262	
O		12.76499963		2.93741881		1.98485939		 0.00007512		 0.00018445		-0.00000262	
O		14.98499956		11.57121316		3.54586160		-0.00007512		 0.00018445		-0.00000262	
O		3.51499990		5.69637738		-0.42386089		 0.00007512		-0.00018445		 0.00000262	
O		12.76499963		5.44341764		1.68414005		 0.00004310		-0.00022516		 0.00035745	
O		5.73499983		11.82417290		1.43786066		-0.00004310		 0.00022516		-0.00035745	
O		3.51499990		0.89885577		2.80084072		-0.00011309		 0.00008599		 0.00028851	
O		14.98499956		16.36873477		0.32116184		 0.00011309		-0.00008599		-0.00028851	
O		5.73499983		16.60904606		-1.68143905		 0.00011542		-0.00028223		 0.00027359	
O		12.76499963		0.65854263		4.80343976		-0.00011542		 0.00028223		-0.00027359	
O		14.98499956		9.92473726		1.09444147		 0.00011542		 0.00028223		-0.00027359	
O		3.51499990		7.34285143		2.02755924		-0.00011542		-0.00028223		 0.00027359	
O		12.76499963		7.10254014		4.03016013		-0.00011309		-0.00008599		-0.00028851	
O		5.73499983		10.16505040		-0.90815942		 0.00011309		 0.00008599		 0.00028851	
O		3.51499990		-0.03162020		0.26349919		-0.00000014		-0.00013320		 0.00035257	
O		14.98499956		-0.60078008		5.00649945		 0.00000014		 0.00013320		-0.00035257	
O		5.73499983		-0.34782034		2.89850036		 0.00003893		-0.00014306		-0.00067687	
O		12.76499963		-0.28457994		2.37150013		-0.00003893		 0.00014306		 0.00067687	
O		14.98499956		8.34921440		3.93250048		 0.00003893		 0.00014306		 0.00067687	
O		3.51499990		8.91837429		-0.81049978		-0.00003893		-0.00014306		-0.00067687	
O		12.76499963		8.66541455		1.29750116		-0.00000014		 0.00013320		-0.00035257	
O		5.73499983		8.60217415		1.82450140		 0.00000014		-0.00013320		 0.00035257	
O		3.51499990		13.14041271		0.76050168		 0.00025023		-0.00010173		-0.00004272	
O		14.98499956		4.12717783		2.36149903		-0.00025023		 0.00010173		 0.00004272	
O		5.73499983		3.87421809		4.46949997		-0.00025023		-0.00010173		-0.00004272	
O		12.76499963		13.39337246		-1.34749926		 0.00025023		 0.00010173		 0.00004272	
O		3.51499990		4.12717783		2.36149903		 0.00004432		-0.00005474		-0.00060002	
O		14.98499956		13.14041271		0.76050168		-0.00004432		 0.00005474		 0.00060002	
O		5.73499983		13.39337246		-1.34749926		-0.00004432		-0.00005474		-0.00060002	
O		12.76499963		3.87421809		4.46949997		 0.00004432		 0.00005474		 0.00060002	
O		3.69999989		15.38327125		-0.28775824		 0.00002996		 0.00032653		 0.00014864	
O		14.79999957		1.88431929		3.40976080		-0.00002996		-0.00032653		-0.00014864	
O		5.54999984		1.82107890		3.93675918		 0.00003389		-0.00007807		-0.00024302	
O		12.94999962		15.44650980		-0.81475848		-0.00003389		 0.00007807		 0.00024302	
O		14.79999957		6.18031517		2.89423982		 0.00003389		 0.00007807		 0.00024302	
O		3.69999989		11.08727352		0.22776089		-0.00003389		-0.00007807		-0.00024302	
O		12.94999962		11.15051392		-0.29923934		 0.00002996		-0.00032653		-0.00014864	
O		5.54999984		6.11707662		3.42124005		-0.00002996		 0.00032653		 0.00014864	
O		3.69999989		15.06707111		2.34724108		 0.00019543		-0.00015247		 0.00016391	
O		14.79999957		2.20051944		0.77475963		-0.00019543		 0.00015247		-0.00016391	
O		5.54999984		2.13727904		1.30175986		-0.00014308		 0.00041430		 0.00078872	
O		12.94999962		15.13030966		1.82024085		 0.00014308		-0.00041430		-0.00078872	
O		14.79999957		6.49651531		0.25924049		-0.00014308		-0.00041430		-0.00078872	
O		3.69999989		10.77107338		2.86276022		 0.00014308		 0.00041430		 0.00078872	
O		12.94999962		10.83431378		2.33576183		 0.00019543		 0.00015247		-0.00016391	
O		5.54999984		6.43327491		0.78624073		-0.00019543		-0.00015247		 0.00016391	
H		17.94500132		-0.09486060		0.79049943		-0.00022202		-0.00012098		-0.00025975	
H		0.55499813		-0.53753968		4.47949922		 0.00022202		 0.00012098		 0.00025975	
H		9.80499786		-0.41106074		3.42550060		 0.00011272		-0.00011207		-0.00012669	
H		8.69500159		-0.22133954		1.84449990		-0.00011272		 0.00011207		 0.00012669	
H		0.55499813		8.41245480		3.40550025		 0.00011272		 0.00011207		 0.00012669	
H		17.94500132		8.85513389		-0.28349954		-0.00011272		-0.00011207		-0.00012669	
H		8.69500159		8.72865494		0.77050093		-0.00022202		 0.00012098		 0.00025975	
H		9.80499786		8.53893560		2.35149978		 0.00022202		-0.00012098		-0.00025975	
