# total energy = -9214.23926575 eV	

CRYSTAL	
PRIMVEC	
		5.32599843		-0.42607881		0.00000000	
		-3.03199591		4.82549141		0.00000000	
		0.00000000		0.00000000		7.28800196	
PRIMCOORD
   18 1	
Mg		1.76716672		-0.14137300		3.31603972		-0.00070026		-0.00027170		 0.00005537	
Mg		-1.00601617		1.60109777		3.31603972		-0.00009898		-0.00061298		-0.00015069	
Mg		1.53285410		2.93968676		3.31603972		 0.00069690		 0.00077586		-0.00060017	
Si		-0.24599726		3.07496818		0.53931174		 0.00003429		 0.00006498		-0.00024065	
Si		2.54000085		1.32444389		0.53931174		-0.00000462		 0.00005808		-0.00006079	
H		3.10505791		-0.24840483		5.33481601		 0.00009330		-0.00031571		-0.00013347	
H		-1.76765400		2.81326192		5.33481601		-0.00012193		-0.00001443		 0.00038484	
H		0.95660022		1.83455498		5.33481601		 0.00012892		-0.00012701		 0.00041722	
H		0.00000000		0.00000000		1.43573624		-0.00013971		 0.00015906		-0.00012699	
O		-0.24599726		3.07496818		2.12153691		-0.00055069		 0.00001952		 0.00004447	
O		2.54000085		1.32444389		2.12153691		-0.00018940		-0.00007884		-0.00011156	
O		2.70028171		-0.21602294		7.22969577		 0.00025121		 0.00000101		 0.00009121	
O		-1.53722202		2.44652372		7.22969577		 0.00015326		 0.00013328		 0.00011143	
O		1.13094389		2.16891023		7.22969577		 0.00000129		 0.00004222		-0.00016862	
O		3.53646370		-0.28291697		4.28534402		 0.00017909		 0.00006802		-0.00006429	
O		-2.01324520		3.20412598		4.28534402		 0.00041613		 0.00001033		 0.00009230	
O		0.77078508		1.47820199		4.28534402		 0.00018545		-0.00001025		 0.00036214	
O		0.00000000		0.00000000		2.21555208		-0.00033425		 0.00009854		 0.00009824	
