# total energy = -9212.99045655 eV	

CRYSTAL	
PRIMVEC	
		5.32600074		-0.63911880		0.00000000	
		-3.21649297		4.93201024		0.00000000	
		0.00000000		0.00000000		7.28799810	
PRIMCOORD
   18 1	
Mg		1.76716711		-0.21206010		3.31603983		 0.00063607		-0.00016648		-0.00001161	
Mg		-1.06723318		1.63644077		3.31603983		 0.00002234		 0.00025638		-0.00029990	
Mg		1.40957170		2.86850969		3.31603983		 0.00029612		-0.00082286		-0.00013725	
Si		-0.36899596		3.07496794		0.53931177		-0.00012561		 0.00014790		 0.00011656	
Si		2.47850212		1.21792403		0.53931177		 0.00012415		 0.00010238		 0.00021202	
H		3.10505794		-0.37260715		5.33481575		 0.00015925		-0.00015687		 0.00046003	
H		-1.87521571		2.87536301		5.33481575		 0.00020973		-0.00028606		 0.00035301	
H		0.87966393		1.79013612		5.33481575		 0.00000537		 0.00016478		 0.00041291	
H		0.00000000		0.00000000		1.43573617		-0.00029181		 0.00088937		-0.00010167	
O		-0.36899596		3.07496794		2.12153701		-0.00022859		-0.00011397		-0.00026885	
O		2.47850212		1.21792403		2.12153701		 0.00027020		 0.00032074		 0.00019142	
O		2.70028217		-0.32403422		7.22969558		 0.00038730		 0.00017649		-0.00011210	
O		-1.63076276		2.50052971		7.22969558		 0.00002214		-0.00024450		 0.00022944	
O		1.03998622		2.11639488		7.22969558		 0.00009245		 0.00013324		 0.00041303	
O		3.53646381		-0.42437606		4.28534400		-0.00049512		-0.00009957		-0.00088007	
O		-2.13575217		3.27485611		4.28534400		-0.00067266		-0.00012701		-0.00037420	
O		0.70879399		1.44241193		4.28534400		 0.00003979		-0.00011172		-0.00025502	
O		0.00000000		0.00000000		2.21555177		-0.00045113		-0.00006226		 0.00005227	
