# total energy = -10317.3498005 eV

CRYSTAL
PRIMVEC
		5.00195168		0.00000000		0.00000000
		0.00000000		8.78812604		0.00000000
		0.00000000		0.00000000		2.81124477
PRIMECORD
   14 1
Si		0.00000000		0.00000000		0.00000000		 0.00000001		 0.00000009		 0.00000002
Si		2.50097634		4.39406203		0.00000000		-0.00000001		-0.00000007		-0.00000003
Mg		0.33740196		2.78927749		1.40562189		-0.00067666		 0.00002990		-0.00000000
Mg		4.66455072		5.99884656		1.40562189		 0.00067669		-0.00002994		-0.00000000
Mg		2.16357438		7.18333952		1.40562189		 0.00067670		 0.00003002		0.00000000
Mg		2.83837780		1.60478453		1.40562139		-0.00067669		-0.00003001		 0.00000001
O		1.13823175		0.42556589		1.40562139		-0.00015094		-0.00014434		 0.00000002
O		3.86372093		8.36255817		1.40562189		 0.00015097		 0.00014427		-0.00000001
O		1.36274459		4.81962791		1.40562189		 0.00015095		-0.00014429		-0.00000000
O		3.63920809		3.96849614		1.40562189		-0.00015099		 0.00014437		 0.00000001
O		1.82710716		2.77121952		0.00000000		 0.00011845		-0.00026603		 0.00000002
O		3.17484552		6.01690454		0.00000000		-0.00011843		 0.00026605		-0.00000002
O		0.67386918		7.16528154		0.00000000		-0.00011850		-0.00026608		-0.00000001
O		4.32808350		1.62284251		0.00000000		 0.00011844		 0.00026607		0.00000000
