# total energy = -10317.0109765 eV

CRYSTAL
PRIMVEC
		5.14136678		0.00000000		0.00000000
		0.00000000		9.23410495		0.00000000
		0.00000000		0.00000000		2.87055159
PRIMECORD
   14 1
Si		0.00000000		0.00000000		0.00000000		-0.00000001		-0.00000002		-0.00000008
Si		2.57068439		4.61705248		0.00000000		 0.00000001		 0.00000007		 0.00000009
Mg		0.15450848		2.74551724		1.43527530		-0.00012122		 0.00016671		-0.00000003
Mg		4.98686029		6.48858771		1.43527430		 0.00012091		-0.00016663		 0.00000008
Mg		2.41617591		7.36256922		1.43527530		 0.00012313		 0.00016934		-0.00000000
Mg		2.72519237		1.87153524		1.43527580		-0.00012290		-0.00016932		-0.00000004
O		1.01886315		0.66730255		1.43527580		-0.00012751		-0.00012501		-0.00000011
O		4.12250463		8.56680290		1.43527530		 0.00012743		 0.00012493		-0.00000000
O		1.55182074		5.28435403		1.43527430		 0.00012766		-0.00012441		 0.00000009
O		3.58954803		3.94975042		1.43527480		-0.00012761		 0.00012440		 0.00000001
O		1.62288086		3.07422263		0.00000000		-0.00002621		-0.00010103		 0.00000003
O		3.51848792		6.15988183		0.00000000		 0.00002631		 0.00010101		 0.00000006
O		0.94780353		7.69127510		0.00000000		 0.00002525		-0.00009917		-0.00000001
O		4.19356474		1.54282935		0.00000000		-0.00002526		 0.00009914		-0.00000008
