# total energy = -24710.5570612 eV

CRYSTAL
PRIMVEC
		9.53870161		0.00000000		-1.14464189
		0.00000000		8.66010045		0.00000000
		-2.28525839		0.00000000		5.18665105
PRIMECORD
   40 1
Mg		-0.57131412		7.83046302		1.29666228		 0.00000627		 0.00060570		-0.00000632
Mg		-1.71394139		0.82963744		3.88998684		-0.00000627		-0.00060570		 0.00000632
Mg		4.19803573		3.50041279		0.72434038		 0.00000603		 0.00060475		-0.00000633
Mg		3.05540942		5.15968671		3.31766494		-0.00000603		-0.00060475		 0.00000633
Mg		-0.57131412		2.47332474		1.29666228		-0.00000000		-0.00049068		-0.00001756
Mg		-1.71394139		6.18677475		3.88998684		0.00000000		 0.00049068		 0.00001756
Mg		4.19803573		6.80337497		0.72434038		-0.00000022		-0.00048263		-0.00001662
Mg		3.05540942		1.85672548		3.31766494		 0.00000022		 0.00048263		 0.00001662
Si		2.22600735		0.79655624		0.93986008		-0.00011252		-0.00058766		-0.00009375
Si		5.02743779		7.86354422		3.10214524		 0.00011252		 0.00058766		 0.00009375
Si		6.17006506		0.79655624		0.50881971		-0.00014522		-0.00041935		 0.00002270
Si		1.08338008		7.86354422		3.53318464		 0.00014522		 0.00041935		-0.00002270
Si		6.99535720		5.12660646		0.36753817		-0.00007014		-0.00054379		-0.00007550
Si		0.25808795		3.53349399		3.67446714		 0.00007014		 0.00054379		 0.00007550
Si		1.40071522		5.12660646		1.08114162		-0.00019093		-0.00037089		 0.00000396
Si		5.85272992		3.53349399		2.96086274		 0.00019093		 0.00037089		-0.00000396
O		0.76250760		0.71705625		0.58641269		-0.00045574		 0.00002877		-0.00031320
O		6.49093659		7.94304325		3.45559263		 0.00045574		-0.00002877		 0.00031320
O		7.63356482		0.71705625		0.86226807		 0.00063050		 0.00002342		 0.00039149
O		-0.38011968		7.94304325		3.17973821		-0.00063050		-0.00002342		-0.00039149
O		5.53185840		5.04710744		0.01409078		-0.00048368		 0.00002253		-0.00032591
O		1.72158674		3.61299398		4.02791549		 0.00048368		-0.00002253		 0.00032591
O		2.86421498		5.04710744		1.43458997		 0.00065860		 0.00001753		 0.00040465
O		4.38923017		3.61299398		2.60741631		-0.00065860		-0.00001753		-0.00040465
O		2.74178936		2.23170823		1.23264323		-0.00005563		-0.00016730		-0.00035379
O		4.51165579		6.42839319		2.80936209		 0.00005563		 0.00016730		 0.00035379
O		5.65428402		2.23170823		0.21603657		 0.00014877		-0.00033240		 0.00035963
O		1.59916112		6.42839319		3.82596779		-0.00014877		 0.00033240		-0.00035963
O		7.51113920		6.56175749		0.66032132		-0.00007551		-0.00020702		-0.00035644
O		-0.25769406		2.09834200		3.38168399		 0.00007551		 0.00020702		 0.00035644
O		0.88493418		6.56175749		0.78835943		 0.00017112		-0.00037703		 0.00036209
O		6.36851097		2.09834200		3.25364589		-0.00017112		 0.00037703		-0.00036209
O		3.32060184		0.05629108		-0.27173200		-0.00004293		-0.00016755		-0.00021083
O		3.93284330		8.60380938		4.31373732		 0.00004293		 0.00016755		 0.00021083
O		5.07546962		0.05629108		1.72041275		 0.00003972		-0.00018042		 0.00021858
O		2.17797361		8.60380938		2.32159256		-0.00003972		 0.00018042		-0.00021858
O		8.08995168		4.38634130		-0.84405390		-0.00004255		-0.00016986		-0.00021726
O		-0.83650654		4.27375915		4.88605922		 0.00004255		 0.00016986		 0.00021726
O		0.30612073		4.38634130		2.29273466		 0.00003930		-0.00018260		 0.00022469
O		6.94732537		4.27375915		1.74927066		-0.00003930		 0.00018260		-0.00022469
