# total energy = -20629.6934013 eV

CRYSTAL
PRIMVEC
		10.10999973		0.00000000		0.00000000
		0.00000000		5.76999926		0.69240355
		0.00000000		0.56399644		4.69999733
PRIMECORD
   28 1
Si		8.51261977		3.37861329		4.45964018		-0.00002688		-0.00004229		 0.00061034
Si		1.59737996		2.95538646		0.93275970		 0.00002688		 0.00004229		-0.00061034
Si		3.26148591		0.49767384		4.14727960		 0.00011852		 0.00006750		 0.00015569
Si		6.84851382		0.06632564		0.55271975		-0.00011852		-0.00006750		-0.00015569
Mg		5.05499986		2.88499963		0.34619975		0.00000000		0.00000000		0.00000000
Mg		0.00000000		0.28200024		2.34999968		0.00000000		0.00000000		0.00000000
Mg		0.00000000		3.16699988		2.69619943		0.00000000		0.00000000		0.00000000
Mg		5.05499986		0.28200024		2.34999968		0.00000000		0.00000000		0.00000000
Mg		2.50930193		1.73951543		2.52026926		 0.00022244		-0.00010789		 0.00008206
Mg		7.60069780		4.59448533		2.87212960		-0.00022244		 0.00010789		-0.00008206
Mg		7.60069780		1.74064270		2.52966853		-0.00047906		-0.00021318		-0.00001507
Mg		2.50930193		4.59335706		2.86273135		 0.00047906		 0.00021318		 0.00001507
O		3.18869391		3.00372237		1.33555017		 0.00017187		-0.00034115		-0.00006131
O		6.92130581		3.33027839		4.05684970		-0.00017187		 0.00034115		 0.00006131
O		1.66006196		3.32249471		3.99199001		 0.00036959		-0.00015231		-0.00021742
O		8.44993777		3.01150505		1.40040987		-0.00036959		 0.00015231		 0.00021742
O		8.39635477		0.13163826		1.09698047		 0.00001311		-0.00009157		-0.00004355
O		1.71364495		0.43236223		3.60301990		-0.00001311		 0.00009157		 0.00004355
O		3.36662991		0.13022792		1.08522961		 0.00036471		 0.00041104		-0.00014113
O		6.74336982		0.43377156		3.61476974		-0.00036471		-0.00041104		 0.00014113
O		0.86036098		1.62976431		1.25498257		 0.00012861		-0.00023570		-0.00086901
O		9.24963875		4.70423545		4.13741730		-0.00012861		 0.00023570		 0.00086901
O		9.24963875		1.93578996		3.80520271		-0.00011629		-0.00017454		 0.00046017
O		0.86036098		4.39820980		1.58719717		 0.00011629		 0.00017454		-0.00046017
O		5.99725184		1.44078112		1.19663574		-0.00042141		-0.00053548		 0.00032484
O		4.11274789		4.89321864		4.19576312		 0.00042141		 0.00053548		-0.00032484
O		4.11274789		1.75549328		3.81923640		-0.00013612		 0.00002997		-0.00058503
O		5.99725184		4.57850648		1.57316347		 0.00013612		-0.00002997		 0.00058503
