# total energy = -20626.7925256 eV

CRYSTAL
PRIMVEC
		10.10999973		0.00000000		0.00000000
		0.00000000		5.76999926		-0.92320474
		0.00000000		-0.75200200		4.69999733
PRIMECORD
   28 1
Si		8.51261977		2.22684977		3.65184008		-0.00016369		-0.00007915		 0.00000555
Si		1.59737996		2.79114952		0.12495960		 0.00016369		 0.00007915		-0.00000555
Si		3.26148591		-0.66356478		4.14727960		-0.00011623		-0.00014654		-0.00059556
Si		6.84851382		-0.08843520		0.55271975		 0.00011623		 0.00014654		 0.00059556
Mg		5.05499986		2.88499963		-0.46160035		0.00000000		0.00000000		0.00000000
Mg		0.00000000		-0.37599999		2.34999968		0.00000000		0.00000000		0.00000000
Mg		0.00000000		2.50899964		1.88840034		0.00000000		0.00000000		0.00000000
Mg		5.05499986		-0.37599999		2.34999968		0.00000000		0.00000000		0.00000000
Mg		2.50930193		1.08283051		2.11200725		-0.00015950		-0.00068872		-0.00090984
Mg		7.60069780		3.93516878		1.66479242		 0.00015950		 0.00068872		 0.00090984
Mg		7.60069780		1.08132715		2.12140652		 0.00023972		 0.00001246		 0.00000879
Mg		2.50930193		3.93667315		1.65539316		-0.00023972		-0.00001246		-0.00000879
O		3.18869391		2.72670433		0.52775007		 0.00008216		 0.00059064		-0.00012364
O		6.92130581		2.29129596		3.24904960		-0.00008216		-0.00059064		 0.00012364
O		1.66006196		2.30167388		3.18418991		 0.00060126		-0.00033527		-0.00080081
O		8.44993777		2.71632642		0.59260977		-0.00060126		 0.00033527		 0.00080081
O		8.39635477		-0.17551667		1.09698047		-0.00009716		-0.00013617		 0.00004790
O		1.71364495		-0.57648331		3.60301990		 0.00009716		 0.00013617		-0.00004790
O		3.36662991		-0.17363722		1.08522961		-0.00082855		-0.00001885		 0.00027879
O		6.74336982		-0.57836275		3.61476974		 0.00082855		 0.00001885		-0.00027879
O		0.86036098		1.32879467		0.83476549		 0.00027043		-0.00042227		 0.00023605
O		9.24963875		3.68920462		2.94203418		-0.00027043		 0.00042227		-0.00023605
O		9.24963875		0.92075913		3.38498563		 0.00015595		 0.00047096		-0.00001360
O		0.86036098		4.09724117		0.39181405		-0.00015595		-0.00047096		 0.00001360
O		5.99725184		1.14994473		0.82811817		 0.00002392		 0.00006858		-0.00038739
O		4.11274789		3.86805456		2.94868151		-0.00002392		-0.00006858		 0.00038739
O		4.11274789		0.73032919		3.45071781		-0.00028420		 0.00021890		-0.00041405
O		5.99725184		4.28767110		0.32608187		 0.00028420		-0.00021890		 0.00041405
