# total energy = -20629.6934013 eV

CRYSTAL
PRIMVEC
		10.10999973		0.00000000		0.00000000
		0.00000000		5.76999926		-0.69240355
		0.00000000		-0.56399644		4.69999733
PRIMECORD
   28 1
Si		8.51261977		2.39138698		3.76723966		-0.00002688		 0.00004229		 0.00061033
Si		1.59737996		2.81461280		0.24036019		 0.00002688		-0.00004229		-0.00061033
Si		3.26148591		-0.49767384		4.14727960		 0.00011851		-0.00006750		 0.00015569
Si		6.84851382		-0.06632564		0.55271975		-0.00011851		 0.00006750		-0.00015569
Mg		5.05499986		2.88499963		-0.34619975		0.00000000		0.00000000		0.00000000
Mg		0.00000000		-0.28200024		2.34999968		0.00000000		0.00000000		0.00000000
Mg		0.00000000		2.60300040		2.00379992		0.00000000		0.00000000		0.00000000
Mg		5.05499986		-0.28200024		2.34999968		0.00000000		0.00000000		0.00000000
Mg		2.50930193		1.17664322		2.17032982		 0.00047906		-0.00021317		 0.00001508
Mg		7.60069780		4.02935657		1.83726902		-0.00047906		 0.00021317		-0.00001508
Mg		7.60069780		1.17551494		2.17973010		-0.00022245		-0.00010789		-0.00008206
Mg		2.50930193		4.03048484		1.82786874		 0.00022245		 0.00010789		 0.00008206
O		3.18869391		2.76627791		0.64314965		 0.00017187		 0.00034115		-0.00006130
O		6.92130581		2.43972188		3.36445019		-0.00017187		-0.00034115		 0.00006130
O		1.66006196		2.44750456		3.29958949		 0.00036959		 0.00015231		-0.00021742
O		8.44993777		2.75849523		0.70801036		-0.00036959		-0.00015231		 0.00021742
O		8.39635477		-0.13163826		1.09698047		 0.00001311		 0.00009157		-0.00004355
O		1.71364495		-0.43236223		3.60301990		-0.00001311		-0.00009157		 0.00004355
O		3.36662991		-0.13022792		1.08522961		 0.00036472		-0.00041105		-0.00014114
O		6.74336982		-0.43377156		3.61476974		-0.00036472		 0.00041105		 0.00014114
O		0.86036098		1.37178947		0.89479665		 0.00011629		-0.00017454		-0.00046017
O		9.24963875		3.83421032		3.11280320		-0.00011629		 0.00017454		 0.00046017
O		9.24963875		1.06576382		3.44501678		-0.00012861		-0.00023570		 0.00086902
O		0.86036098		4.14023597		0.56258307		 0.00012861		 0.00023570		-0.00086902
O		5.99725184		1.19149279		0.88076397		 0.00013612		 0.00002998		 0.00058503
O		4.11274789		4.01450700		3.12683588		-0.00013612		-0.00002998		-0.00058503
O		4.11274789		0.87678063		3.50336260		 0.00042140		-0.00053548		-0.00032484
O		5.99725184		4.32921916		0.50423624		-0.00042140		 0.00053548		 0.00032484
