# total energy = -20626.7925256 eV

CRYSTAL
PRIMVEC
		10.10999973		0.00000000		0.00000000
		0.00000000		5.76999926		0.92320474
		0.00000000		0.75200200		4.69999733
PRIMECORD
   28 1
Si		8.51261977		3.54314949		4.57503976		-0.00016369		 0.00007915		 0.00000555
Si		1.59737996		2.97884975		1.04816029		 0.00016369		-0.00007915		-0.00000555
Si		3.26148591		0.66356478		4.14727960		-0.00011623		 0.00014654		-0.00059555
Si		6.84851382		0.08843520		0.55271975		 0.00011623		-0.00014654		 0.00059555
Mg		5.05499986		2.88499963		0.46160035		0.00000000		0.00000000		0.00000000
Mg		0.00000000		0.37599999		2.34999968		0.00000000		0.00000000		0.00000000
Mg		0.00000000		3.26099962		2.81160002		0.00000000		0.00000000		0.00000000
Mg		5.05499986		0.37599999		2.34999968		0.00000000		0.00000000		0.00000000
Mg		2.50930193		1.83332713		2.57859284		-0.00023971		 0.00001246		-0.00000879
Mg		7.60069780		4.68867312		3.04460721		 0.00023971		-0.00001246		 0.00000879
Mg		7.60069780		1.83483049		2.58799210		 0.00015949		-0.00068873		 0.00090983
Mg		2.50930193		4.68716875		3.03520693		-0.00015949		 0.00068873		-0.00090983
O		3.18869391		3.04329594		1.45094975		 0.00008216		-0.00059065		-0.00012364
O		6.92130581		3.47870431		4.17225029		-0.00008216		 0.00059065		 0.00012364
O		1.66006196		3.46832640		4.10738959		 0.00060126		 0.00033528		-0.00080081
O		8.44993777		3.05367386		1.51581046		-0.00060126		-0.00033528		 0.00080081
O		8.39635477		0.17551667		1.09698047		-0.00009716		 0.00013617		 0.00004790
O		1.71364495		0.57648331		3.60301990		 0.00009716		-0.00013617		-0.00004790
O		3.36662991		0.17363722		1.08522961		-0.00082855		 0.00001885		 0.00027879
O		6.74336982		0.57836275		3.61476974		 0.00082855		-0.00001885		-0.00027879
O		0.86036098		1.67275910		1.31501373		-0.00015595		 0.00047097		 0.00001359
O		9.24963875		4.84924115		4.30818632		 0.00015595		-0.00047097		-0.00001359
O		9.24963875		2.08079465		3.86523387		-0.00027043		-0.00042227		-0.00023604
O		0.86036098		4.44120459		1.75796618		 0.00027043		 0.00042227		 0.00023604
O		5.99725184		1.48232917		1.24928155		 0.00028420		 0.00021891		 0.00041406
O		4.11274789		5.03967108		4.37391749		-0.00028420		-0.00021891		-0.00041406
O		4.11274789		1.90194471		3.87188220		-0.00002392		 0.00006858		 0.00038739
O		5.99725184		4.62005453		1.75131785		 0.00002392		-0.00006858		-0.00038739
