# total energy = -20633.526133 eV

CRYSTAL
PRIMVEC
		10.10999973		0.00000000		0.00000000
		0.00000000		5.76999926		0.23080118
		0.00000000		0.18799544		4.69999733
PRIMECORD
   28 1
Si		8.51261977		3.04953786		4.22884001		-0.00022288		-0.00037965		-0.00034483
Si		1.59737996		2.90846191		0.70195952		 0.00022288		 0.00037965		 0.00034483
Si		3.26148591		0.16589094		4.14727960		 0.00029631		-0.00040278		 0.00042255
Si		6.84851382		0.02210855		0.55271975		-0.00029631		 0.00040278		-0.00042255
Mg		5.05499986		2.88499963		0.11539958		0.00000000		0.00000000		0.00000000
Mg		0.00000000		0.09399974		2.34999968		0.00000000		0.00000000		0.00000000
Mg		0.00000000		2.97900039		2.46540027		0.00000000		0.00000000		0.00000000
Mg		5.05499986		0.09399974		2.34999968		0.00000000		0.00000000		0.00000000
Mg		2.50930193		1.55189102		2.40362312		 0.00001928		-0.00005802		 0.00022646
Mg		7.60069780		4.40610874		2.52717742		-0.00001928		 0.00005802		-0.00022646
Mg		7.60069780		1.55226712		2.41302339		 0.00010293		-0.00020613		-0.00040919
Mg		2.50930193		4.40573265		2.51777715		-0.00010293		 0.00020613		 0.00040919
O		3.18869391		2.92457422		1.10475000		 0.00061065		-0.00050322		 0.00009912
O		6.92130581		3.03342555		3.82604953		-0.00061065		 0.00050322		-0.00009912
O		1.66006196		3.03083233		3.76118984		-0.00064542		-0.00000287		 0.00038336
O		8.44993777		2.92716743		1.16960969		 0.00064542		 0.00000287		-0.00038336
O		8.39635477		0.04387942		1.09698047		 0.00035579		-0.00031313		-0.00030682
O		1.71364495		0.14412108		3.60301990		-0.00035579		 0.00031313		 0.00030682
O		3.36662991		0.04340931		1.08522961		 0.00007027		 0.00017001		 0.00072006
O		6.74336982		0.14459119		3.61476974		-0.00007027		-0.00017001		-0.00072006
O		0.86036098		1.54377269		1.13492127		-0.00026424		-0.00076356		 0.00073972
O		9.24963875		4.41422707		3.79587927		 0.00026424		 0.00076356		-0.00073972
O		9.24963875		1.64578057		3.68514040		 0.00020418		-0.00019226		-0.00029400
O		0.86036098		4.31221920		1.24565913		-0.00020418		 0.00019226		 0.00029400
O		5.99725184		1.35768501		1.09134515		 0.00014608		 0.00025478		-0.00074616
O		4.11274789		4.60031476		3.83945438		-0.00014608		-0.00025478		 0.00074616
O		4.11274789		1.46258940		3.71394480		-0.00012966		 0.00041702		-0.00015490
O		5.99725184		4.49541138		1.21685372		 0.00012966		-0.00041702		 0.00015490
