# total energy = -20633.526133 eV

CRYSTAL
PRIMVEC
		10.10999973		0.00000000		0.00000000
		0.00000000		5.76999926		-0.23080118
		0.00000000		-0.18799544		4.69999733
PRIMECORD
   28 1
Si		8.51261977		2.72046242		3.99803983		-0.00022288		 0.00037964		-0.00034484
Si		1.59737996		2.86153837		0.47116036		 0.00022288		-0.00037964		 0.00034484
Si		3.26148591		-0.16589094		4.14727960		 0.00029630		 0.00040276		 0.00042256
Si		6.84851382		-0.02210855		0.55271975		-0.00029630		-0.00040276		-0.00042256
Mg		5.05499986		2.88499963		-0.11539958		0.00000000		0.00000000		0.00000000
Mg		0.00000000		-0.09399974		2.34999968		0.00000000		0.00000000		0.00000000
Mg		0.00000000		2.79099989		2.23460010		0.00000000		0.00000000		0.00000000
Mg		5.05499986		-0.09399974		2.34999968		0.00000000		0.00000000		0.00000000
Mg		2.50930193		1.36426662		2.28697697		-0.00010293		-0.00020613		 0.00040919
Mg		7.60069780		4.21773316		2.18222322		 0.00010293		 0.00020613		-0.00040919
Mg		7.60069780		1.36389052		2.29637725		-0.00001928		-0.00005805		-0.00022646
Mg		2.50930193		4.21810925		2.17282294		 0.00001928		 0.00005805		 0.00022646
O		3.18869391		2.84542606		0.87394983		 0.00061066		 0.00050324		 0.00009915
O		6.92130581		2.73657372		3.59525037		-0.00061066		-0.00050324		-0.00009915
O		1.66006196		2.73916794		3.53038966		-0.00064542		 0.00000286		 0.00038334
O		8.44993777		2.84283183		0.93880952		 0.00064542		-0.00000286		-0.00038334
O		8.39635477		-0.04387942		1.09698047		 0.00035577		 0.00031315		-0.00030681
O		1.71364495		-0.14412108		3.60301990		-0.00035577		-0.00031315		 0.00030681
O		3.36662991		-0.04340931		1.08522961		 0.00007028		-0.00017000		 0.00072007
O		6.74336982		-0.14459119		3.61476974		-0.00007028		 0.00017000		-0.00072007
O		0.86036098		1.45778108		1.01485896		-0.00020419		-0.00019226		 0.00029399
O		9.24963875		4.12421870		3.45434123		 0.00020419		 0.00019226		-0.00029399
O		9.24963875		1.35577321		3.56507909		 0.00026425		-0.00076354		-0.00073971
O		0.86036098		4.22622657		0.90412110		-0.00026425		 0.00076354		 0.00073971
O		5.99725184		1.27458890		0.98605355		 0.00012966		 0.00041702		 0.00015492
O		4.11274789		4.30741088		3.48314462		-0.00012966		-0.00041702		-0.00015492
O		4.11274789		1.16968451		3.60865420		-0.00014610		 0.00025478		 0.00074617
O		5.99725184		4.41231527		0.86054498		 0.00014610		-0.00025478		-0.00074617
