# total energy = -18533.8690736 eV

CRYSTAL
PRIMVEC
		4.68600010		0.00000000		0.00000000
		-2.34300005		4.05819324		0.00000000
		0.00000000		0.00000000		14.62010008
PRIMECORD
   30 1
O		1.42548123		0.13229703		3.53221597		-0.00043290		 0.00005449		-0.00003885
O		0.91751882		3.92589809		11.08788411		 0.00043290		-0.00005449		 0.00003885
O		3.85868725		1.16835385		3.53221597		 0.00016926		-0.00040214		-0.00003885
O		-1.51568720		2.88984127		11.08788411		-0.00016926		 0.00040214		 0.00003885
O		1.74483214		2.75754283		3.53221597		 0.00026364		 0.00034765		-0.00003885
O		0.59816791		1.30065088		11.08788411		-0.00026364		-0.00034765		 0.00003885
O		3.76848128		1.48502905		8.40558298		-0.00043300		 0.00005205		-0.00002838
O		0.91751882		1.22043405		1.34115010		 0.00043507		-0.00005329		 0.00002674
O		1.51568720		2.52108586		8.40558298		 0.00017143		-0.00040102		-0.00002838
O		3.17031290		0.18437723		1.34115010		-0.00017138		 0.00040343		 0.00002674
O		1.74483214		0.05208021		8.40558298		 0.00026158		 0.00034897		-0.00002838
O		2.94116797		2.65338289		1.34115010		-0.00026369		-0.00035014		 0.00002674
O		1.42548123		2.83776013		13.27895045		-0.00043507		 0.00005329		-0.00002674
O		-1.42548123		2.57316607		6.21451711		 0.00043300		-0.00005205		 0.00002838
O		-0.82731285		3.87381788		13.27895045		 0.00017138		-0.00040343		-0.00002674
O		0.82731285		1.53710925		6.21451711		-0.00017143		 0.00040102		 0.00002838
O		-0.59816791		1.40481222		13.27895045		 0.00026369		 0.00035014		-0.00002674
O		0.59816791		4.00611491		6.21451711		-0.00026158		-0.00034897		 0.00002838
Mg		0.00000000		0.00000000		5.24276814		0.00000000		0.00000000		-0.00008765
Mg		0.00000000		0.00000000		9.37733241		0.00000000		-0.00000000		 0.00008765
Mg		2.34300005		1.35273202		10.11613515		0.00000000		-0.00000000		-0.00010498
Mg		2.34300005		1.35273202		14.25069942		0.00000000		-0.00000000		 0.00009132
Mg		0.00000000		2.70546310		0.36940114		0.00000000		-0.00000000		-0.00009132
Mg		0.00000000		2.70546310		4.50396587		0.00000000		0.00000000		 0.00010498
Si		0.00000000		0.00000000		2.29535608		0.00000000		0.00000000		 0.00006863
Si		0.00000000		0.00000000		12.32474541		0.00000000		0.00000000		-0.00006863
Si		2.34300005		1.35273202		7.16872309		0.00000000		0.00000000		 0.00005005
Si		2.34300005		1.35273202		2.57801092		0.00000000		-0.00000000		-0.00002886
Si		0.00000000		2.70546310		12.04209010		0.00000000		0.00000000		 0.00002886
Si		0.00000000		2.70546310		7.45137840		0.00000000		0.00000000		-0.00005005
