# total energy = -18277.0689054 eV	

CRYSTAL	
PRIMVEC	
		5.33600200		-0.85376270		0.00000000	
		-3.40737730		5.04799198		0.00000000	
		0.00000000		0.00000000		14.61400229	
PRIMCOORD
   28 1	
Mg		1.77155206		-0.28344807		3.19754289		-0.00044697		 0.00062729		-0.00016127	
Mg		-1.13124922		1.67593276		3.19754289		-0.00011852		 0.00112265		 0.00053513	
Mg		1.28832024		2.80174676		3.19754289		-0.00020232		 0.00025038		-0.00018755	
Mg		3.56444778		-0.57031193		10.50454404		 0.00044697		-0.00062729		-0.00016127	
Mg		-2.27612808		3.37205815		10.50454404		 0.00011852		-0.00112265		 0.00053513	
Mg		0.64030284		1.39248523		10.50454404		 0.00020232		-0.00025038		-0.00018755	
Si		-0.49291879		3.08074096		0.42672896		-0.00054486		 0.00059251		 0.00065098	
Si		2.42154079		1.11348994		7.73372902		 0.00054486		-0.00059251		 0.00065098	
Si		-0.49291879		3.08074096		7.73372902		 0.00091344		 0.00026614		 0.00004646	
Si		2.42154079		1.11349102		0.42672896		-0.00091344		-0.00026614		 0.00004646	
O		-0.49291879		3.08074096		2.05472777		-0.00066918		 0.00047900		 0.00036647	
O		2.42154079		1.11348994		9.36172784		 0.00066918		-0.00047900		 0.00036647	
O		-0.49291879		3.08074096		9.36172784		 0.00004346		 0.00085214		-0.00027258	
O		2.42154079		1.11349102		2.05472777		-0.00004346		-0.00085214		-0.00027258	
O		2.63598416		-0.42175686		14.48247427		-0.00005882		-0.00000814		-0.00113379	
O		-1.68324527		2.49370785		14.48247427		-0.00011117		-0.00067383		 0.00038955	
O		0.97588312		2.12228100		14.48247427		 0.00034084		-0.00048305		-0.00025199	
O		2.70001622		-0.43200314		7.17547421		 0.00005882		 0.00000814		-0.00113379	
O		-1.72413311		2.55428414		7.17547421		 0.00011117		 0.00067383		 0.00038955	
O		0.95273889		2.07194991		7.17547421		-0.00034084		 0.00048305		-0.00025199	
O		3.55733305		-0.56917279		4.17814305		-0.00022785		-0.00035666		 0.00022697	
O		-2.27158504		3.36532817		4.17814305		 0.00069206		-0.00007331		-0.00006128	
O		0.64287400		1.39807715		4.17814305		-0.00170765		-0.00040986		-0.00093829	
O		1.77866679		-0.28458721		11.48514311		 0.00022785		 0.00035666		 0.00022697	
O		-1.13579279		1.68266381		11.48514311		-0.00069206		 0.00007331		-0.00006128	
O		1.28574800		2.79615376		11.48514311		 0.00170765		 0.00040986		-0.00093829	
O		0.00000000		0.00000000		2.10441581		 0.00090429		 0.00039882		 0.00079117	
O		0.00000000		0.00000000		9.41141587		-0.00090429		-0.00039882		 0.00079117	
