# total energy = -18280.3361621 eV	

CRYSTAL	
PRIMVEC	
		5.33599862		-0.42687882		0.00000000	
		-3.03768884		4.83455184		0.00000000	
		0.00000000		0.00000000		14.61399789	
PRIMCOORD
   28 1	
Mg		1.77155218		-0.14172409		3.19754316		 0.00178456		-0.00079281		-0.00002474	
Mg		-1.00851319		1.60507078		3.19754316		 0.00046245		-0.00046119		 0.00000909	
Mg		1.53527185		2.94432526		3.19754316		-0.00043052		-0.00005341		 0.00074779	
Mg		3.56444804		-0.28515580		10.50454425		-0.00178456		 0.00079281		-0.00002474	
Mg		-2.02917619		3.22947999		10.50454425		-0.00046245		 0.00046119		 0.00000909	
Mg		0.76303900		1.46334723		10.50454425		 0.00043052		 0.00005341		 0.00074779	
Si		-0.24645915		3.08074126		0.42672893		 0.00027169		-0.00055127		-0.00069710	
Si		2.54477000		1.32693015		7.73372895		-0.00027169		 0.00055127		-0.00069710	
Si		-0.24645915		3.08074126		7.73372895		 0.00023546		-0.00067508		 0.00039674	
Si		2.54477000		1.32693122		0.42672893		-0.00023546		 0.00067508		 0.00039674	
O		-0.24645915		3.08074126		2.05472789		-0.00130408		 0.00044301		-0.00001015	
O		2.54477000		1.32693015		9.36172844		 0.00130408		-0.00044301		-0.00001015	
O		-0.24645915		3.08074126		9.36172844		 0.00107019		 0.00027006		 0.00012922	
O		2.54477000		1.32693122		2.05472789		-0.00107019		-0.00027006		 0.00012922	
O		2.63598380		-0.21087905		14.48247404		-0.00042470		 0.00019734		-0.00009729	
O		-1.50061783		2.38826829		14.48247404		 0.00018438		-0.00032473		-0.00107300	
O		1.16294488		2.23028217		14.48247404		-0.00037735		-0.00112861		-0.00018339	
O		2.70001589		-0.21600084		7.17547402		 0.00042470		-0.00019734		-0.00009729	
O		-1.53707101		2.44628302		7.17547402		-0.00018438		 0.00032473		-0.00107300	
O		1.13536597		2.17739031		7.17547402		 0.00037735		 0.00112861		-0.00018339	
O		3.55733330		-0.28458677		4.17814288		-0.00030282		-0.00118009		-0.00087158	
O		-2.02512607		3.22303384		4.17814288		 0.00043656		-0.00082637		-0.00008477	
O		0.76610415		1.46922380		4.17814288		 0.00030854		 0.00064571		 0.00047377	
O		1.77866692		-0.14229312		11.48514343		 0.00030282		 0.00118009		-0.00087158	
O		-1.01256277		1.61151692		11.48514343		-0.00043656		 0.00082637		-0.00008477	
O		1.53220723		2.93844814		11.48514343		-0.00030854		-0.00064571		 0.00047377	
O		0.00000000		0.00000000		2.10441595		 0.00119914		-0.00151043		 0.00128540	
O		0.00000000		0.00000000		9.41141597		-0.00119914		 0.00151043		 0.00128540	
