# total energy = -18280.3365485 eV	

CRYSTAL	
PRIMVEC	
		5.33599862		0.42687882		0.00000000	
		-2.29830978		4.40767302		0.00000000	
		0.00000000		0.00000000		14.61399789	
PRIMCOORD
   28 1	
Mg		1.77155218		0.14172409		3.19754316		 0.00020950		 0.00233394		 0.00009371	
Mg		-0.76303900		1.46334723		3.19754316		-0.00018227		 0.00135976		-0.00055609	
Mg		2.02917619		3.22947999		3.19754316		-0.00083490		-0.00061598		-0.00024235	
Mg		3.56444804		0.28515580		10.50454425		-0.00020950		-0.00233394		 0.00009371	
Mg		-1.53527185		2.94432526		10.50454425		 0.00018227		-0.00135976		-0.00055609	
Mg		1.00851319		1.60507078		10.50454425		 0.00083490		 0.00061598		-0.00024235	
Si		0.24645915		3.08074126		0.42672893		-0.00044634		 0.00059563		-0.00117978	
Si		2.79122915		1.75381004		7.73372895		 0.00044634		-0.00059563		-0.00117978	
Si		0.24645915		3.08074126		7.73372895		 0.00075154		-0.00074401		 0.00012099	
Si		2.79123022		1.75381111		0.42672893		-0.00075154		 0.00074401		 0.00012099	
O		0.24645915		3.08074126		2.05472789		 0.00125979		-0.00143689		-0.00153027	
O		2.79122915		1.75381004		9.36172844		-0.00125979		 0.00143689		-0.00153027	
O		0.24645915		3.08074126		9.36172844		-0.00115132		 0.00105637		 0.00063637	
O		2.79123022		1.75381111		2.05472789		 0.00115132		-0.00105637		 0.00063637	
O		2.63598380		0.21087905		14.48247404		-0.00015068		 0.00062666		 0.00048025	
O		-1.13536597		2.17739031		14.48247404		-0.00098046		 0.00081685		 0.00272015	
O		1.53707101		2.44628302		14.48247404		-0.00026552		 0.00045097		-0.00003815	
O		2.70001589		0.21600084		7.17547402		 0.00015068		-0.00062666		 0.00048025	
O		-1.16294488		2.23028217		7.17547402		 0.00098046		-0.00081685		 0.00272015	
O		1.50061783		2.38826829		7.17547402		 0.00026552		-0.00045097		-0.00003815	
O		3.55733330		0.28458677		4.17814288		 0.00213037		 0.00155154		 0.00009083	
O		-1.53220723		2.93844814		4.17814288		 0.00118126		 0.00078378		 0.00165652	
O		1.01256277		1.61151692		4.17814288		-0.00087882		-0.00062891		-0.00085740	
O		1.77866692		0.14229312		11.48514343		-0.00213037		-0.00155154		 0.00009083	
O		-0.76610415		1.46922380		11.48514343		-0.00118126		-0.00078378		 0.00165652	
O		2.02512607		3.22303384		11.48514343		 0.00087882		 0.00062891		-0.00085740	
O		0.00000000		0.00000000		2.10441595		 0.00010699		 0.00059961		-0.00139477	
O		0.00000000		0.00000000		9.41141597		-0.00010699		-0.00059961		-0.00139477	
