# total energy = -20634.4244992 eV

CRYSTAL
PRIMVEC
		10.10999973		0.00000000		0.00000000
		0.00000000		5.91424874		0.00000000
		0.00000000		0.00000000		4.69999733
PRIMECORD
   28 1
Si		8.51261977		2.95712538		4.11343941		 0.00039387		0.00000000		-0.00043623
Si		1.59737996		2.95712538		0.58655994		-0.00039387		0.00000000		 0.00043623
Si		3.26148591		0.00000000		4.14727960		-0.00027837		-0.00000000		 0.00058066
Si		6.84851382		0.00000000		0.55271975		 0.00027837		-0.00000000		-0.00058066
Mg		5.05499986		2.95712538		0.00000000		0.00000000		0.00000000		0.00000000
Mg		0.00000000		0.00000000		2.34999968		0.00000000		0.00000000		0.00000000
Mg		0.00000000		2.95712538		2.34999968		0.00000000		0.00000000		0.00000000
Mg		5.05499986		0.00000000		2.34999968		0.00000000		0.00000000		0.00000000
Mg		2.50930193		1.49453093		2.34529954		 0.00035440		 0.00021220		 0.00070290
Mg		7.60069780		4.41971882		2.35469982		-0.00035440		-0.00021220		-0.00070290
Mg		7.60069780		1.49453093		2.35469982		-0.00035440		 0.00021220		-0.00070290
Mg		2.50930193		4.41971882		2.34529954		 0.00035440		-0.00021220		 0.00070290
O		3.18869391		2.95712538		0.98935042		-0.00020985		0.00000000		 0.00053678
O		6.92130581		2.95712538		3.71064995		 0.00020985		0.00000000		-0.00053678
O		1.66006196		2.95712538		3.64579025		-0.00028661		0.00000000		 0.00025416
O		8.44993777		2.95712538		1.05421011		 0.00028661		0.00000000		-0.00025416
O		8.39635477		0.00000000		1.09698047		 0.00005553		0.00000000		-0.00029641
O		1.71364495		0.00000000		3.60301990		-0.00005553		0.00000000		 0.00029641
O		3.36662991		0.00000000		1.08522961		-0.00049936		-0.00000000		 0.00066915
O		6.74336982		0.00000000		3.61476974		 0.00049936		-0.00000000		-0.00066915
O		0.86036098		1.53829611		1.07489012		-0.00009451		-0.00043151		-0.00009809
O		9.24963875		4.37595364		3.62511025		 0.00009451		 0.00043151		 0.00009809
O		9.24963875		1.53829611		3.62511025		 0.00009451		-0.00043151		 0.00009809
O		0.86036098		4.37595364		1.07489012		-0.00009451		 0.00043151		-0.00009809
O		5.99725184		1.34903995		1.03870036		 0.00013315		-0.00017111		-0.00012229
O		4.11274789		4.56520981		3.66130001		-0.00013315		 0.00017111		 0.00012229
O		4.11274789		1.34903995		3.66130001		-0.00013315		-0.00017111		 0.00012229
O		5.99725184		4.56520981		1.03870036		 0.00013315		 0.00017111		-0.00012229
