# total energy = -20629.2876302 eV

CRYSTAL
PRIMVEC
		10.10999973		0.00000000		0.00000000
		0.00000000		5.19300136		0.00000000
		0.00000000		0.00000000		4.69999733
PRIMECORD
   28 1
Si		8.51261977		2.59649967		4.11343941		-0.00027528		-0.00000000		-0.00021368
Si		1.59737996		2.59649967		0.58655994		 0.00027528		-0.00000000		 0.00021368
Si		3.26148591		0.00000000		4.14727960		 0.00031736		0.00000000		-0.00051076
Si		6.84851382		0.00000000		0.55271975		-0.00031736		0.00000000		 0.00051076
Mg		5.05499986		2.59649967		0.00000000		0.00000000		0.00000000		0.00000000
Mg		0.00000000		0.00000000		2.34999968		0.00000000		0.00000000		0.00000000
Mg		0.00000000		2.59649967		2.34999968		0.00000000		0.00000000		0.00000000
Mg		5.05499986		0.00000000		2.34999968		0.00000000		0.00000000		0.00000000
Mg		2.50930193		1.31227089		2.34529954		-0.00017953		-0.00002364		-0.00042026
Mg		7.60069780		3.88072845		2.35469982		 0.00017953		 0.00002364		 0.00042026
Mg		7.60069780		1.31227089		2.35469982		 0.00017953		-0.00002364		 0.00042026
Mg		2.50930193		3.88072845		2.34529954		-0.00017953		 0.00002364		-0.00042026
O		3.18869391		2.59649967		0.98935042		 0.00070517		0.00000000		-0.00061731
O		6.92130581		2.59649967		3.71064995		-0.00070517		0.00000000		 0.00061731
O		1.66006196		2.59649967		3.64579025		 0.00000725		-0.00000000		-0.00020998
O		8.44993777		2.59649967		1.05421011		-0.00000725		-0.00000000		 0.00020998
O		8.39635477		0.00000000		1.09698047		 0.00019236		-0.00000000		 0.00051171
O		1.71364495		0.00000000		3.60301990		-0.00019236		-0.00000000		-0.00051171
O		3.36662991		0.00000000		1.08522961		-0.00029708		-0.00000000		 0.00036685
O		6.74336982		0.00000000		3.61476974		 0.00029708		-0.00000000		-0.00036685
O		0.86036098		1.35069900		1.07489012		 0.00010462		-0.00000872		 0.00013833
O		9.24963875		3.84230135		3.62511025		-0.00010462		 0.00000872		-0.00013833
O		9.24963875		1.35069900		3.62511025		-0.00010462		-0.00000872		-0.00013833
O		0.86036098		3.84230135		1.07489012		 0.00010462		 0.00000872		 0.00013833
O		5.99725184		1.18452295		1.03870036		 0.00008285		 0.00018056		-0.00025515
O		4.11274789		4.00847740		3.66130001		-0.00008285		-0.00018056		 0.00025515
O		4.11274789		1.18452295		3.66130001		-0.00008285		 0.00018056		 0.00025515
O		5.99725184		4.00847740		1.03870036		 0.00008285		-0.00018056		-0.00025515
