# total energy = -20633.3524807 eV

CRYSTAL
PRIMVEC
		10.10999973		0.00000000		0.00000000
		0.00000000		5.62574979		0.00000000
		0.00000000		0.00000000		4.69999733
PRIMECORD
   28 1
Si		8.51261977		2.81287489		4.11343941		 0.00000434		0.00000000		-0.00046361
Si		1.59737996		2.81287489		0.58655994		-0.00000434		0.00000000		 0.00046361
Si		3.26148591		0.00000000		4.14727960		-0.00043922		0.00000000		 0.00058906
Si		6.84851382		0.00000000		0.55271975		 0.00043922		0.00000000		-0.00058906
Mg		5.05499986		2.81287489		0.00000000		0.00000000		0.00000000		0.00000000
Mg		0.00000000		0.00000000		2.34999968		0.00000000		0.00000000		0.00000000
Mg		0.00000000		2.81287489		2.34999968		0.00000000		0.00000000		0.00000000
Mg		5.05499986		0.00000000		2.34999968		0.00000000		0.00000000		0.00000000
Mg		2.50930193		1.42162671		2.34529954		 0.00015130		 0.00008895		 0.00049769
Mg		7.60069780		4.20412308		2.35469982		-0.00015130		-0.00008895		-0.00049769
Mg		7.60069780		1.42162671		2.35469982		-0.00015130		 0.00008895		-0.00049769
Mg		2.50930193		4.20412308		2.34529954		 0.00015130		-0.00008895		 0.00049769
O		3.18869391		2.81287489		0.98935042		 0.00036419		0.00000000		 0.00029175
O		6.92130581		2.81287489		3.71064995		-0.00036419		0.00000000		-0.00029175
O		1.66006196		2.81287489		3.64579025		-0.00056203		0.00000000		 0.00030083
O		8.44993777		2.81287489		1.05421011		 0.00056203		0.00000000		-0.00030083
O		8.39635477		0.00000000		1.09698047		 0.00031654		0.00000000		-0.00028425
O		1.71364495		0.00000000		3.60301990		-0.00031654		0.00000000		 0.00028425
O		3.36662991		0.00000000		1.08522961		-0.00016012		-0.00000000		 0.00074275
O		6.74336982		0.00000000		3.61476974		 0.00016012		-0.00000000		-0.00074275
O		0.86036098		1.46325767		1.07489012		-0.00013433		-0.00034565		 0.00015122
O		9.24963875		4.16249212		3.62511025		 0.00013433		 0.00034565		-0.00015122
O		9.24963875		1.46325767		3.62511025		 0.00013433		-0.00034565		-0.00015122
O		0.86036098		4.16249212		1.07489012		-0.00013433		 0.00034565		 0.00015122
O		5.99725184		1.28323396		1.03870036		 0.00008656		-0.00007172		-0.00019759
O		4.11274789		4.34251583		3.66130001		-0.00008656		 0.00007172		 0.00019759
O		4.11274789		1.28323396		3.66130001		-0.00008656		-0.00007172		 0.00019759
O		5.99725184		4.34251583		1.03870036		 0.00008656		 0.00007172		-0.00019759
