# total energy = -20634.6466402 eV

CRYSTAL
PRIMVEC
		10.10999973		0.00000000		0.00000000
		0.00000000		6.20274769		0.00000000
		0.00000000		0.00000000		4.69999733
PRIMECORD
   28 1
Si		8.51261977		3.10137486		4.11343941		 0.00051408		0.00000000		-0.00027776
Si		1.59737996		3.10137486		0.58655994		-0.00051408		0.00000000		 0.00027776
Si		3.26148591		0.00000000		4.14727960		 0.00041153		-0.00000000		 0.00008173
Si		6.84851382		0.00000000		0.55271975		-0.00041153		-0.00000000		-0.00008173
Mg		5.05499986		3.10137486		0.00000000		0.00000000		0.00000000		0.00000000
Mg		0.00000000		0.00000000		2.34999968		0.00000000		0.00000000		0.00000000
Mg		0.00000000		3.10137486		2.34999968		0.00000000		0.00000000		0.00000000
Mg		5.05499986		0.00000000		2.34999968		0.00000000		0.00000000		0.00000000
Mg		2.50930193		1.56743515		2.34529954		 0.00025003		-0.00002800		 0.00069544
Mg		7.60069780		4.63531457		2.35469982		-0.00025003		 0.00002800		-0.00069544
Mg		7.60069780		1.56743515		2.35469982		-0.00025003		-0.00002800		-0.00069544
Mg		2.50930193		4.63531457		2.34529954		 0.00025003		 0.00002800		 0.00069544
O		3.18869391		3.10137486		0.98935042		-0.00021582		-0.00000000		 0.00012687
O		6.92130581		3.10137486		3.71064995		 0.00021582		-0.00000000		-0.00012687
O		1.66006196		3.10137486		3.64579025		 0.00012746		-0.00000000		 0.00034719
O		8.44993777		3.10137486		1.05421011		-0.00012746		-0.00000000		-0.00034719
O		8.39635477		0.00000000		1.09698047		-0.00088414		0.00000000		 0.00001136
O		1.71364495		0.00000000		3.60301990		 0.00088414		0.00000000		-0.00001136
O		3.36662991		0.00000000		1.08522961		-0.00042324		0.00000000		 0.00043546
O		6.74336982		0.00000000		3.61476974		 0.00042324		0.00000000		-0.00043546
O		0.86036098		1.61333455		1.07489012		-0.00000797		-0.00031810		 0.00035398
O		9.24963875		4.58941517		3.62511025		 0.00000797		 0.00031810		-0.00035398
O		9.24963875		1.61333455		3.62511025		 0.00000797		-0.00031810		-0.00035398
O		0.86036098		4.58941517		1.07489012		-0.00000797		 0.00031810		 0.00035398
O		5.99725184		1.41484694		1.03870036		 0.00026937		 0.00013070		-0.00012610
O		4.11274789		4.78790277		3.66130001		-0.00026937		-0.00013070		 0.00012610
O		4.11274789		1.41484694		3.66130001		-0.00026937		 0.00013070		 0.00012610
O		5.99725184		4.78790277		1.03870036		 0.00026937		-0.00013070		-0.00012610
