# total energy = -20634.538275 eV

CRYSTAL
PRIMVEC
		10.10999973		0.00000000		0.00000000
		0.00000000		6.34699717		0.00000000
		0.00000000		0.00000000		4.69999733
PRIMECORD
   28 1
Si		8.51261977		3.17349960		4.11343941		 0.00023331		0.00000000		-0.00020815
Si		1.59737996		3.17349960		0.58655994		-0.00023331		0.00000000		 0.00020815
Si		3.26148591		0.00000000		4.14727960		 0.00029942		0.00000000		 0.00032899
Si		6.84851382		0.00000000		0.55271975		-0.00029942		0.00000000		-0.00032899
Mg		5.05499986		3.17349960		0.00000000		0.00000000		0.00000000		0.00000000
Mg		0.00000000		0.00000000		2.34999968		0.00000000		0.00000000		0.00000000
Mg		0.00000000		3.17349960		2.34999968		0.00000000		0.00000000		0.00000000
Mg		5.05499986		0.00000000		2.34999968		0.00000000		0.00000000		0.00000000
Mg		2.50930193		1.60388675		2.34529954		 0.00021524		 0.00005481		 0.00039007
Mg		7.60069780		4.74311244		2.35469982		-0.00021524		-0.00005481		-0.00039007
Mg		7.60069780		1.60388675		2.35469982		-0.00021524		 0.00005481		-0.00039007
Mg		2.50930193		4.74311244		2.34529954		 0.00021524		-0.00005481		 0.00039007
O		3.18869391		3.17349960		0.98935042		-0.00034751		0.00000000		 0.00000667
O		6.92130581		3.17349960		3.71064995		 0.00034751		0.00000000		-0.00000667
O		1.66006196		3.17349960		3.64579025		 0.00021429		-0.00000000		 0.00017270
O		8.44993777		3.17349960		1.05421011		-0.00021429		-0.00000000		-0.00017270
O		8.39635477		0.00000000		1.09698047		-0.00067634		0.00000000		 0.00010136
O		1.71364495		0.00000000		3.60301990		 0.00067634		0.00000000		-0.00010136
O		3.36662991		0.00000000		1.08522961		-0.00018006		0.00000000		 0.00007972
O		6.74336982		0.00000000		3.61476974		 0.00018006		0.00000000		-0.00007972
O		0.86036098		1.65085478		1.07489012		 0.00012535		-0.00034470		 0.00024531
O		9.24963875		4.69614441		3.62511025		-0.00012535		 0.00034470		-0.00024531
O		9.24963875		1.65085478		3.62511025		-0.00012535		-0.00034470		-0.00024531
O		0.86036098		4.69614441		1.07489012		 0.00012535		 0.00034470		 0.00024531
O		5.99725184		1.44775095		1.03870036		 0.00000643		 0.00024229		 0.00000690
O		4.11274789		4.89924925		3.66130001		-0.00000643		-0.00024229		-0.00000690
O		4.11274789		1.44775095		3.66130001		-0.00000643		 0.00024229		-0.00000690
O		5.99725184		4.89924925		1.03870036		 0.00000643		-0.00024229		 0.00000690
