# total energy = -20631.0472589 eV

CRYSTAL
PRIMVEC
		10.10999973		0.00000000		0.00000000
		0.00000000		5.33725084		0.00000000
		0.00000000		0.00000000		4.69999733
PRIMECORD
   28 1
Si		8.51261977		2.66862542		4.11343941		-0.00039778		0.00000000		-0.00040514
Si		1.59737996		2.66862542		0.58655994		 0.00039778		0.00000000		 0.00040514
Si		3.26148591		0.00000000		4.14727960		 0.00016667		0.00000000		-0.00007933
Si		6.84851382		0.00000000		0.55271975		-0.00016667		0.00000000		 0.00007933
Mg		5.05499986		2.66862542		0.00000000		0.00000000		0.00000000		0.00000000
Mg		0.00000000		0.00000000		2.34999968		0.00000000		0.00000000		0.00000000
Mg		0.00000000		2.66862542		2.34999968		0.00000000		0.00000000		0.00000000
Mg		5.05499986		0.00000000		2.34999968		0.00000000		0.00000000		0.00000000
Mg		2.50930193		1.34872249		2.34529954		-0.00011694		-0.00003746		-0.00006191
Mg		7.60069780		3.98852733		2.35469982		 0.00011694		 0.00003746		 0.00006191
Mg		7.60069780		1.34872249		2.35469982		 0.00011694		-0.00003746		 0.00006191
Mg		2.50930193		3.98852733		2.34529954		-0.00011694		 0.00003746		-0.00006191
O		3.18869391		2.66862542		0.98935042		 0.00077202		0.00000000		-0.00015279
O		6.92130581		2.66862542		3.71064995		-0.00077202		0.00000000		 0.00015279
O		1.66006196		2.66862542		3.64579025		-0.00017314		0.00000000		 0.00002008
O		8.44993777		2.66862542		1.05421011		 0.00017314		0.00000000		-0.00002008
O		8.39635477		0.00000000		1.09698047		 0.00030249		0.00000000		 0.00019488
O		1.71364495		0.00000000		3.60301990		-0.00030249		0.00000000		-0.00019488
O		3.36662991		0.00000000		1.08522961		-0.00028057		-0.00000000		 0.00063014
O		6.74336982		0.00000000		3.61476974		 0.00028057		-0.00000000		-0.00063014
O		0.86036098		1.38821923		1.07489012		-0.00001243		-0.00017532		 0.00038411
O		9.24963875		3.94903060		3.62511025		 0.00001243		 0.00017532		-0.00038411
O		9.24963875		1.38821923		3.62511025		 0.00001243		-0.00017532		-0.00038411
O		0.86036098		3.94903060		1.07489012		-0.00001243		 0.00017532		 0.00038411
O		5.99725184		1.21742696		1.03870036		-0.00001142		 0.00017680		-0.00019793
O		4.11274789		4.11982287		3.66130001		 0.00001142		-0.00017680		 0.00019793
O		4.11274789		1.21742696		3.66130001		 0.00001142		 0.00017680		 0.00019793
O		5.99725184		4.11982287		1.03870036		-0.00001142		-0.00017680		-0.00019793
