# total energy = -22457.5005127 eV	

CRYSTAL	
PRIMVEC	
		9.05300002		0.00000000		0.00000000	
		0.00000000		8.06084554		0.00000000	
		-0.52464851		0.00000000		4.72194523	
PRIMCOORD
   40 1	
Ca		6.64561268		0.54410703		0.42544664		-0.00014636		-0.00032135		-0.00077390	
Ca		1.88274336		7.51674304		4.29649587		 0.00014636		 0.00032135		 0.00077390	
Ca		2.14506490		4.57453161		1.93552507		 0.00014636		-0.00032135		 0.00077390	
Ca		6.38329114		3.48631846		2.78641926		-0.00014636		 0.00032135		-0.00077390	
Mg		1.97928999		1.32278634		1.90388845		-0.00017133		 0.00014222		-0.00032476	
Mg		6.54906696		6.73806463		2.81805587		 0.00017133		-0.00014222		 0.00032476	
Mg		6.81138940		5.35321001		0.45708416		 0.00017133		 0.00014222		 0.00032476	
Mg		1.71696845		2.70764005		4.26485926		-0.00017133		-0.00014222		-0.00032476	
Si		4.38151984		1.33810130		2.18484288		-0.00001658		-0.00014593		 0.00022151	
Si		4.14683711		6.72274876		2.53709963		 0.00001658		 0.00014593		-0.00022151	
Si		4.40915865		5.36852588		0.17612793		 0.00001658		-0.00014593		-0.00022151	
Si		4.11919830		2.69232418		4.54581459		-0.00001658		 0.00014593		 0.00022151	
Si		0.14788438		6.88638445		1.24375999		 0.00001926		 0.00022933		-0.00007981	
Si		8.38047347		1.17446561		3.47818434		-0.00001926		-0.00022933		 0.00007981	
Si		8.64279501		2.85595897		1.11721172		-0.00001926		 0.00022933		 0.00007981	
Si		-0.11443807		5.20489109		3.60473079		 0.00001926		-0.00022933		-0.00007981	
O		3.50493414		1.36470173		0.53310673		 0.00029751		 0.00041630		-0.00055857	
O		5.02342190		6.69614833		4.18883578		-0.00029751		-0.00041630		 0.00055857	
O		5.28574434		5.39512722		1.82786408		-0.00029751		 0.00041630		 0.00055857	
O		3.24261170		2.66572285		2.89407934		 0.00029751		-0.00041630		-0.00055857	
O		3.49747718		3.89419685		0.40467091		-0.00015436		-0.00030350		 0.00007089	
O		5.03087976		4.16665322		4.31727341		 0.00015436		 0.00030350		-0.00007089	
O		5.29320220		7.92462233		1.95630080		 0.00015436		-0.00030350		-0.00007089	
O		3.23515474		0.13622773		2.76564172		-0.00015436		 0.00030350		 0.00007089	
O		5.43097891		2.36344137		1.26217560		 0.00013948		-0.00025653		 0.00000567	
O		3.09737713		5.69740870		3.45976782		-0.00013948		 0.00025653		-0.00000567	
O		3.35969867		6.39386595		1.09879611		-0.00013948		-0.00025653		-0.00000567	
O		5.16865737		1.66698412		3.62314731		 0.00013948		 0.00025653		 0.00000567	
O		1.17630971		2.83419465		1.02371686		 0.00014972		-0.00023702		 0.00024787	
O		7.35204724		5.22665541		3.69822565		-0.00014972		 0.00023702		-0.00024787	
O		7.61436878		6.86462014		1.33725394		-0.00014972		-0.00023702		-0.00024787	
O		0.91398817		1.19622993		3.38468857		 0.00014972		 0.00023702		 0.00024787	
O		0.85195973		0.23295904		0.93636085		 0.00007729		-0.00010102		-0.00007488	
O		7.67639631		7.82789102		3.78558167		-0.00007729		 0.00010102		 0.00007488	
O		7.93871785		4.26338362		1.42460996		-0.00007729		-0.00010102		 0.00007488	
O		0.58963819		3.79746645		3.29733346		 0.00007729		 0.00010102		-0.00007488	
O		0.94307183		5.71514262		0.32817487		-0.00023962		-0.00028629		 0.00003333	
O		7.58528420		2.34570745		4.39376764		 0.00023962		 0.00028629		-0.00003333	
O		7.84760574		1.68471804		2.03279684		 0.00023962		-0.00028629		-0.00003333	
O		0.68075029		6.37613202		2.68914658		-0.00023962		 0.00028629		 0.00003333	
