# total energy = -22455.5087171 eV	

CRYSTAL	
PRIMVEC	
		9.05300002		0.00000000		0.00000000	
		0.00000000		7.86892194		0.00000000	
		-0.52464851		0.00000000		4.72194523	
PRIMCOORD
   40 1	
Ca		6.64561268		0.53115219		0.42544664		 0.00003755		 0.00009437		 0.00050383	
Ca		1.88274336		7.33777337		4.29649587		-0.00003755		-0.00009437		-0.00050383	
Ca		2.14506490		4.46561496		1.93552507		-0.00003755		 0.00009437		-0.00050383	
Ca		6.38329114		3.40330969		2.78641926		 0.00003755		-0.00009437		 0.00050383	
Mg		1.97928999		1.29129095		1.90388845		-0.00031699		 0.00029436		 0.00016957	
Mg		6.54906696		6.57763460		2.81805587		 0.00031699		-0.00029436		-0.00016957	
Mg		6.81138940		5.22575283		0.45708416		 0.00031699		 0.00029436		-0.00016957	
Mg		1.71696845		2.64317183		4.26485926		-0.00031699		-0.00029436		 0.00016957	
Si		4.38151984		1.30624198		2.18484288		 0.00003742		-0.00003837		-0.00070530	
Si		4.14683711		6.56268267		2.53709963		-0.00003742		 0.00003837		 0.00070530	
Si		4.40915865		5.24070386		0.17612793		-0.00003742		-0.00003837		 0.00070530	
Si		4.11919830		2.62822080		4.54581459		 0.00003742		 0.00003837		-0.00070530	
Si		0.14788438		6.72242286		1.24375999		 0.00002588		-0.00014734		 0.00040342	
Si		8.38047347		1.14650180		3.47818434		-0.00002588		 0.00014734		-0.00040342	
Si		8.64279501		2.78796008		1.11721172		-0.00002588		-0.00014734		-0.00040342	
Si		-0.11443807		5.08096458		3.60473079		 0.00002588		 0.00014734		 0.00040342	
O		3.50493414		1.33220870		0.53310673		-0.00011840		-0.00067542		-0.00064126	
O		5.02342190		6.53671595		4.18883578		 0.00011840		 0.00067542		 0.00064126	
O		5.28574434		5.26667239		1.82786408		 0.00011840		-0.00067542		 0.00064126	
O		3.24261170		2.60225317		2.89407934		-0.00011840		 0.00067542		-0.00064126	
O		3.49747718		3.80147783		0.40467091		-0.00005787		-0.00089915		-0.00003459	
O		5.03087976		4.06744682		4.31727341		 0.00005787		 0.00089915		 0.00003459	
O		5.29320220		7.73593970		1.95630080		 0.00005787		-0.00089915		 0.00003459	
O		3.23515474		0.13298495		2.76564172		-0.00005787		 0.00089915		-0.00003459	
O		5.43097891		2.30716882		1.26217560		 0.00022040		 0.00007360		-0.00034056	
O		3.09737713		5.56175583		3.45976782		-0.00022040		-0.00007360		 0.00034056	
O		3.35969867		6.24163070		1.09879611		-0.00022040		 0.00007360		 0.00034056	
O		5.16865737		1.62729395		3.62314731		 0.00022040		-0.00007360		-0.00034056	
O		1.17630971		2.76671359		1.02371686		-0.00032808		-0.00004988		 0.00048030	
O		7.35204724		5.10221106		3.69822565		 0.00032808		 0.00004988		-0.00048030	
O		7.61436878		6.70117727		1.33725394		 0.00032808		-0.00004988		-0.00048030	
O		0.91398817		1.16774919		3.38468857		-0.00032808		 0.00004988		 0.00048030	
O		0.85195973		0.22741227		0.93636085		 0.00056722		-0.00058013		 0.00072308	
O		7.67639631		7.64151329		3.78558167		-0.00056722		 0.00058013		-0.00072308	
O		7.93871785		4.16187504		1.42460996		-0.00056722		-0.00058013		-0.00072308	
O		0.58963819		3.70705142		3.29733346		 0.00056722		 0.00058013		 0.00072308	
O		0.94307183		5.57906788		0.32817487		-0.00026696		 0.00019223		 0.00047147	
O		7.58528420		2.28985677		4.39376764		 0.00026696		-0.00019223		-0.00047147	
O		7.84760574		1.64460510		2.03279684		 0.00026696		 0.00019223		-0.00047147	
O		0.68075029		6.22432046		2.68914658		-0.00026696		-0.00019223		 0.00047147	
