# total energy = -12281.0226463 eV

CRYSTAL
PRIMVEC
		3.14299982		0.00000000		0.00000000
		-1.57149991		2.72191642		0.00000000
		0.00000000		0.00000000		21.63339665
PRIMECORD
   22 1
O		0.00000000		1.81461189		14.54413331		0.00000000		-0.00000000		-0.00054072
O		1.57149991		0.90730610		7.08926460		0.00000000		-0.00000000		 0.00054072
O		1.57149991		0.90730610		16.64473713		0.00000000		-0.00000000		-0.00044555
O		0.00000000		1.81461189		4.98866173		0.00000000		0.00000000		 0.00044555
O		0.00000000		1.81461189		9.76747950		0.00000000		0.00000000		-0.00027337
O		1.57149991		0.90730610		11.86591936		0.00000000		-0.00000000		 0.00027337
O		0.00000000		1.81461189		19.39866878		0.00000000		-0.00000000		 0.00007259
O		1.57149991		0.90730610		2.23472976		0.00000000		0.00000000		-0.00007259
O		0.00000000		0.00000000		0.00000000		0.00000000		0.00000000		0.00000000
H		0.00000000		1.81461189		13.60524415		0.00000000		-0.00000000		-0.00065319
H		1.57149991		0.90730610		8.02815471		0.00000000		-0.00000000		 0.00065319
H		0.00000000		1.81461189		8.82642638		0.00000000		0.00000000		-0.00001788
H		1.57149991		0.90730610		12.80697216		0.00000000		-0.00000000		 0.00001788
H		0.00000000		1.81461189		18.45761597		0.00000000		-0.00000000		 0.00053850
H		1.57149991		0.90730610		3.17578288		0.00000000		-0.00000000		-0.00053850
H		1.57149991		0.90730610		17.58578993		0.00000000		-0.00000000		-0.00012400
H		0.00000000		1.81461189		4.04760892		0.00000000		-0.00000000		 0.00012400
Mg		0.00000000		0.00000000		15.59551704		0.00000000		0.00000000		-0.00027811
Mg		0.00000000		0.00000000		6.03788181		0.00000000		-0.00000000		 0.00027811
Mg		1.57149991		0.90730610		20.45870487		0.00000000		-0.00000000		-0.00027327
Mg		0.00000000		1.81461189		1.17469398		0.00000000		0.00000000		 0.00027327
Mg		0.00000000		0.00000000		10.81669927		0.00000000		0.00000000		0.00000000
