# total energy = -12280.5598311 eV

CRYSTAL
PRIMVEC
		3.14299982		0.00000000		0.00000000
		-1.57149991		2.72191642		0.00000000
		0.00000000		0.00000000		24.47989845
PRIMECORD
   22 1
O		0.00000000		1.81461189		16.45783519		0.00000000		0.00000000		-0.00012964
O		1.57149991		0.90730610		8.02206263		0.00000000		0.00000000		 0.00012964
O		1.57149991		0.90730610		18.83483409		0.00000000		0.00000000		-0.00008305
O		0.00000000		1.81461189		5.64506467		0.00000000		-0.00000000		 0.00008305
O		0.00000000		1.81461189		11.05267444		0.00000000		-0.00000000		 0.00034188
O		1.57149991		0.90730610		13.42722432		0.00000000		-0.00000000		-0.00034188
O		0.00000000		1.81461189		21.95112471		0.00000000		-0.00000000		-0.00045732
O		1.57149991		0.90730610		2.52877280		0.00000000		0.00000000		 0.00045732
O		0.00000000		0.00000000		0.00000000		0.00000000		0.00000000		0.00000000
H		0.00000000		1.81461189		15.39540727		0.00000000		0.00000000		-0.00021539
H		1.57149991		0.90730610		9.08449055		0.00000000		0.00000000		 0.00021539
H		0.00000000		1.81461189		9.98779844		0.00000000		-0.00000000		-0.00039234
H		1.57149991		0.90730610		14.49210032		0.00000000		0.00000000		 0.00039234
H		0.00000000		1.81461189		20.88624996		0.00000000		0.00000000		 0.00012544
H		1.57149991		0.90730610		3.59364880		0.00000000		0.00000000		-0.00012544
H		1.57149991		0.90730610		19.89970884		0.00000000		0.00000000		-0.00067804
H		0.00000000		1.81461189		4.58018867		0.00000000		0.00000000		 0.00067804
Mg		0.00000000		0.00000000		17.64755805		0.00000000		-0.00000000		-0.00028730
Mg		0.00000000		0.00000000		6.83233976		0.00000000		0.00000000		 0.00028730
Mg		1.57149991		0.90730610		23.15063959		0.00000000		0.00000000		 0.00014035
Mg		0.00000000		1.81461189		1.32925886		0.00000000		0.00000000		-0.00014035
Mg		0.00000000		0.00000000		12.23994922		-0.00000000		-0.00000000		0.00000000
