# total energy = -12280.9929378 eV

CRYSTAL
PRIMVEC
		3.14299982		0.00000000		0.00000000
		-1.57149991		2.72191642		0.00000000
		0.00000000		0.00000000		20.49479782
PRIMECORD
   22 1
O		0.00000000		1.81461189		13.77865225		0.00000000		-0.00000000		 0.00029865
O		1.57149991		0.90730610		6.71614558		0.00000000		0.00000000		-0.00029865
O		1.57149991		0.90730610		15.76869822		0.00000000		-0.00000000		 0.00000540
O		0.00000000		1.81461189		4.72610086		0.00000000		0.00000000		-0.00000540
O		0.00000000		1.81461189		9.25340133		0.00000000		-0.00000000		-0.00027026
O		1.57149991		0.90730610		11.24139744		0.00000000		0.00000000		 0.00027026
O		0.00000000		1.81461189		18.37768603		0.00000000		-0.00000000		 0.00003477
O		1.57149991		0.90730610		2.11711180		0.00000000		0.00000000		-0.00003477
O		0.00000000		0.00000000		0.00000000		0.00000000		0.00000000		0.00000000
H		0.00000000		1.81461189		12.88917827		0.00000000		-0.00000000		-0.00021903
H		1.57149991		0.90730610		7.60561955		0.00000000		0.00000000		 0.00021903
H		0.00000000		1.81461189		8.36187749		0.00000000		-0.00000000		 0.00031563
H		1.57149991		0.90730610		12.13292034		0.00000000		0.00000000		-0.00031563
H		0.00000000		1.81461189		17.48616187		0.00000000		0.00000000		-0.00021410
H		1.57149991		0.90730610		3.00863595		0.00000000		-0.00000000		 0.00021410
H		1.57149991		0.90730610		16.66022206		0.00000000		-0.00000000		 0.00008417
H		0.00000000		1.81461189		3.83457671		0.00000000		-0.00000000		-0.00008417
Mg		0.00000000		0.00000000		14.77470032		0.00000000		0.00000000		 0.00000648
Mg		0.00000000		0.00000000		5.72009876		0.00000000		-0.00000000		-0.00000648
Mg		1.57149991		0.90730610		19.38193104		0.00000000		-0.00000000		 0.00023083
Mg		0.00000000		1.81461189		1.11286803		0.00000000		-0.00000000		-0.00023083
Mg		0.00000000		0.00000000		10.24739954		-0.00000000		0.00000000		0.00000000
