# total energy = -12281.0462332 eV

CRYSTAL
PRIMVEC
		3.14299982		0.00000000		0.00000000
		-1.57149991		2.72191642		0.00000000
		0.00000000		0.00000000		21.06409881
PRIMECORD
   22 1
O		0.00000000		1.81461189		14.16139325		0.00000000		0.00000000		 0.00083101
O		1.57149991		0.90730610		6.90270556		0.00000000		-0.00000000		-0.00083101
O		1.57149991		0.90730610		16.20671704		0.00000000		0.00000000		 0.00042521
O		0.00000000		1.81461189		4.85738082		0.00000000		-0.00000000		-0.00042521
O		0.00000000		1.81461189		9.51044057		0.00000000		0.00000000		-0.00049452
O		1.57149991		0.90730610		11.55365824		0.00000000		-0.00000000		 0.00049452
O		0.00000000		1.81461189		18.88817709		0.00000000		-0.00000000		 0.00038810
O		1.57149991		0.90730610		2.17592078		0.00000000		0.00000000		-0.00038810
O		0.00000000		0.00000000		0.00000000		0.00000000		0.00000000		0.00000000
H		0.00000000		1.81461189		13.24721121		0.00000000		0.00000000		-0.00040612
H		1.57149991		0.90730610		7.81688666		0.00000000		0.00000000		 0.00040612
H		0.00000000		1.81461189		8.59415146		0.00000000		0.00000000		 0.00042875
H		1.57149991		0.90730610		12.46994641		0.00000000		-0.00000000		-0.00042875
H		0.00000000		1.81461189		17.97188892		0.00000000		0.00000000		-0.00090964
H		1.57149991		0.90730610		3.09220895		0.00000000		-0.00000000		 0.00090964
H		1.57149991		0.90730610		17.12300615		0.00000000		0.00000000		-0.00041193
H		0.00000000		1.81461189		3.94109265		0.00000000		-0.00000000		 0.00041193
Mg		0.00000000		0.00000000		15.18510821		0.00000000		-0.00000000		-0.00019172
Mg		0.00000000		0.00000000		5.87898966		0.00000000		0.00000000		 0.00019172
Mg		1.57149991		0.90730610		19.92031780		0.00000000		0.00000000		 0.00065449
Mg		0.00000000		1.81461189		1.14378101		0.00000000		-0.00000000		-0.00065449
Mg		0.00000000		0.00000000		10.53204940		0.00000000		0.00000000		0.00000000
