# total energy = -34531.1851611 eV

CRYSTAL
PRIMVEC
		10.04479981		0.00000000		0.00000000
		0.00000000		5.30800370		0.00000000
		-0.51654379		0.00000000		13.28131466
PRIMECORD
   56 1
Si		1.35130181		2.54146996		4.82257669		 0.00057548		 0.00052538		 0.00028062
Si		8.17695622		2.76652972		8.45873395		-0.00057548		-0.00052538		-0.00028062
Si		8.43522711		2.54146996		1.81807863		-0.00058875		 0.00060016		-0.00005963
Si		1.09303092		2.76652972		11.46323201		 0.00058875		-0.00060016		 0.00005963
Si		6.37370171		5.19546979		4.82257669		 0.00057527		 0.00052459		 0.00028124
Si		3.15455632		0.11252988		8.45873395		-0.00057527		-0.00052459		-0.00028124
Si		3.41282721		5.19546979		1.81807863		-0.00058895		 0.00059977		-0.00005963
Si		6.11543082		0.11252988		11.46323201		 0.00058895		-0.00059977		 0.00005963
Mg		4.76412901		2.65399984		6.64065532		0.00000000		0.00000000		0.00000000
Mg		5.02239990		2.65399984		0.00000000		0.00000000		0.00000000		0.00000000
Mg		-0.25827089		0.00000000		6.64065532		0.00000000		0.00000000		0.00000000
Mg		0.00000000		0.00000000		0.00000000		0.00000000		0.00000000		0.00000000
O		0.49673644		1.13432007		4.97119453		 0.00036331		 0.00080197		 0.00066110
O		9.03152158		4.17367961		8.31011612		-0.00036331		-0.00080197		-0.00066110
O		9.28979247		1.13432007		1.66946079		-0.00035282		 0.00077126		-0.00069022
O		0.23846455		4.17367961		11.61184985		 0.00035282		-0.00077126		 0.00069022
O		5.51913635		3.78831991		4.97119453		 0.00036328		 0.00080106		 0.00066123
O		4.00912168		1.51967977		8.31011612		-0.00036328		-0.00080106		-0.00066123
O		4.26739257		3.78831991		1.66946079		-0.00035269		 0.00077038		-0.00069051
O		5.26086445		1.51967977		11.61184985		 0.00035269		-0.00077038		 0.00069051
O		2.86247263		2.43743396		5.63791610		 0.00011181		-0.00029478		 0.00070113
O		6.66578440		2.87056572		7.64339353		-0.00011181		 0.00029478		-0.00070113
O		6.92405629		2.43743396		1.00273922		-0.00013977		-0.00029776		-0.00073308
O		2.60420174		2.87056572		12.27857143		 0.00013977		 0.00029776		 0.00073308
O		7.88487253		5.09143379		5.63791610		 0.00011200		-0.00029091		 0.00070078
O		1.64338449		0.21656588		7.64339353		-0.00011200		 0.00029091		-0.00070078
O		1.90165639		5.09143379		1.00273922		-0.00013977		-0.00029402		-0.00073288
O		7.62660164		0.21656588		12.27857143		 0.00013977		 0.00029402		 0.00073288
O		0.43598248		3.65933463		5.65518211		-0.00037094		-0.00016892		-0.00016281
O		9.09227555		1.64866505		7.62612853		 0.00037094		 0.00016892		 0.00016281
O		9.35054644		3.65933463		0.98547321		 0.00038907		-0.00015325		 0.00013178
O		0.17771059		1.64866505		12.29583643		-0.00038907		 0.00015325		-0.00013178
O		5.45838238		1.00533479		5.65518211		-0.00037198		-0.00017168		-0.00016133
O		4.06987564		4.30266488		7.62612853		 0.00037198		 0.00017168		 0.00016133
O		4.32814653		1.00533479		0.98547321		 0.00039038		-0.00015620		 0.00013013
O		5.20011049		4.30266488		12.29583643		-0.00039038		 0.00015620		-0.00013013
O		1.56423348		3.11208088		3.35087490		-0.00077084		 0.00018301		-0.00005801
O		7.96402354		2.19591980		9.93043574		 0.00077084		-0.00018301		 0.00005801
O		8.22229443		3.11208088		3.28978142		 0.00078568		 0.00013445		-0.00011711
O		1.30596259		2.19591980		9.99153022		-0.00078568		-0.00013445		 0.00011711
O		6.58663338		0.45808004		3.35087490		-0.00076970		 0.00018220		-0.00005818
O		2.94162364		4.84991964		9.93043574		 0.00076970		-0.00018220		 0.00005818
O		3.19989453		0.45808004		3.28978142		 0.00078486		 0.00013386		-0.00011750
O		6.32836250		4.84991964		9.99153022		-0.00078486		-0.00013386		 0.00011750
Ca		1.71074693		2.54784037		1.18761476		-0.00071087		-0.00075077		 0.00055509
Ca		7.81751110		2.76016031		12.09369588		 0.00071087		 0.00075077		-0.00055509
Ca		8.07578199		2.54784037		5.45304056		 0.00071084		-0.00075001		-0.00052200
Ca		1.45247604		2.76016031		7.82827008		-0.00071084		 0.00075001		 0.00052200
Ca		6.73314683		5.20184021		1.18761476		-0.00070991		-0.00075134		 0.00055391
Ca		2.79511120		0.10616048		12.09369588		 0.00070991		 0.00075134		-0.00055391
Ca		3.05338208		5.20184021		5.45304056		 0.00070992		-0.00075053		-0.00052098
Ca		6.47487595		0.10616048		7.82827008		-0.00070992		 0.00075053		 0.00052098
Ca		-0.12913494		4.93166322		3.32032766		-0.00000151		 0.00092201		 0.00001891
Ca		-0.38740583		0.37633747		9.96098298		 0.00000151		-0.00092201		-0.00001891
Ca		4.89326396		2.27766338		3.32032766		-0.00000170		 0.00092159		 0.00001892
Ca		4.63499307		3.03033730		9.96098298		 0.00000170		-0.00092159		-0.00001892
