# total energy = -34529.9276751 eV

CRYSTAL
PRIMVEC
		8.64319991		0.00000000		0.00000000
		0.00000000		5.30799650		0.00000000
		-0.44446791		0.00000000		13.28131384
PRIMECORD
   56 1
Si		1.16274808		2.54146984		4.82257711		-0.00060788		-0.00049735		 0.00024969
Si		7.03598478		2.76653012		8.45873414		 0.00060788		 0.00049735		-0.00024969
Si		7.25821787		2.54146984		1.81807895		 0.00063813		-0.00028976		 0.00032176
Si		0.94051498		2.76653012		11.46323230		-0.00063813		 0.00028976		-0.00032176
Si		5.48434803		5.19546982		4.82257711		-0.00060252		-0.00049877		 0.00025308
Si		2.71438569		0.11253014		8.45873414		 0.00060252		 0.00049877		-0.00025308
Si		2.93661879		5.19546982		1.81807895		 0.00062917		-0.00029233		 0.00031524
Si		5.26211494		0.11253014		11.46323230		-0.00062917		 0.00029233		-0.00031524
Mg		4.09936686		2.65399998		6.64065519		0.00000000		0.00000000		0.00000000
Mg		4.32159995		2.65399998		0.00000000		0.00000000		0.00000000		0.00000000
Mg		-0.22223309		0.00000000		6.64065519		0.00000000		0.00000000		0.00000000
Mg		0.00000000		0.00000000		0.00000000		0.00000000		0.00000000		0.00000000
O		0.42742439		1.13431973		4.97119520		-0.00051556		-0.00067667		-0.00022534
O		7.77130934		4.17368023		8.31011605		 0.00051556		 0.00067667		 0.00022534
O		7.99354156		1.13431973		1.66946086		 0.00056460		-0.00074457		 0.00015523
O		0.20519129		4.17368023		11.61184953		-0.00056460		 0.00074457		-0.00015523
O		4.74902434		3.78831970		4.97119520		-0.00051668		-0.00067773		-0.00022535
O		3.44970938		1.51968025		8.31011605		 0.00051668		 0.00067773		 0.00022535
O		3.67194334		3.78831970		1.66946086		 0.00056600		-0.00074578		 0.00015494
O		4.52679125		1.51968025		11.61184953		-0.00056600		 0.00074578		-0.00015494
O		2.46305786		2.43743423		5.63791608		-0.00056424		-0.00005828		-0.00059724
O		5.73567586		2.87056572		7.64339430		 0.00056424		 0.00005828		 0.00059724
O		5.95790895		2.43743423		1.00273911		 0.00037470		-0.00010435		 0.00044550
O		2.24082477		2.87056572		12.27857214		-0.00037470		 0.00010435		-0.00044550
O		6.78465782		5.09143421		5.63791608		-0.00056854		-0.00005755		-0.00059969
O		1.41407591		0.21656575		7.64339430		 0.00056854		 0.00005755		 0.00059969
O		1.63630900		5.09143421		1.00273911		 0.00038291		-0.00010322		 0.00045009
O		6.56242472		0.21656575		12.27857214		-0.00038291		 0.00010322		-0.00045009
O		0.37514686		3.65933464		5.65518174		 0.00025799		-0.00029348		 0.00065777
O		7.82358600		1.64866532		7.62612864		-0.00025799		 0.00029348		-0.00065777
O		8.04581996		3.65933464		0.98547259		-0.00021969		-0.00024139		-0.00073515
O		0.15291376		1.64866532		12.29583693		 0.00021969		 0.00024139		 0.00073515
O		4.69674681		1.00533466		5.65518174		 0.00025708		-0.00029247		 0.00065809
O		3.50198691		4.30266530		7.62612864		-0.00025708		 0.00029247		-0.00065809
O		3.72422001		1.00533466		0.98547259		-0.00021803		-0.00023999		-0.00073589
O		4.47451372		4.30266530		12.29583693		 0.00021803		 0.00023999		 0.00073589
O		1.34596922		3.11208093		3.35087526		-0.00005287		 0.00013954		 0.00003121
O		6.85276450		2.19591989		9.93043599		 0.00005287		-0.00013954		-0.00003121
O		7.07499759		3.11208093		3.28978080		 0.00011318		 0.00001990		-0.00043149
O		1.12373613		2.19591989		9.99152958		-0.00011318		-0.00001990		 0.00043149
O		5.66756917		0.45808009		3.35087526		-0.00005340		 0.00014006		 0.00002996
O		2.53116455		4.84991987		9.93043599		 0.00005340		-0.00014006		-0.00002996
O		2.75339764		0.45808009		3.28978080		 0.00011353		 0.00002099		-0.00042865
O		5.44533608		4.84991987		9.99152958		-0.00011353		-0.00002099		 0.00042865
Ca		1.47203807		2.54783988		1.18761456		-0.00089258		-0.00050393		-0.00019292
Ca		6.72669565		2.76016008		12.09369582		 0.00089258		 0.00050393		 0.00019292
Ca		6.94892875		2.54783988		5.45304063		 0.00088914		-0.00049695		 0.00026690
Ca		1.24980498		2.76016008		7.82826975		-0.00088914		 0.00049695		-0.00026690
Ca		5.79363802		5.20183985		1.18761456		-0.00089122		-0.00050407		-0.00019341
Ca		2.40509570		0.10616010		12.09369582		 0.00089122		 0.00050407		 0.00019341
Ca		2.62732879		5.20183985		5.45304063		 0.00088822		-0.00049706		 0.00026725
Ca		5.57140493		0.10616010		7.82826975		-0.00088822		 0.00049706		-0.00026725
Ca		-0.11111698		4.93166293		3.32032760		-0.00000098		 0.00066087		 0.00004772
Ca		-0.33335007		0.37633702		9.96098279		 0.00000098		-0.00066087		-0.00004772
Ca		4.21048298		2.27766295		3.32032760		-0.00000099		 0.00066128		 0.00004803
Ca		3.98824988		3.03033700		9.96098279		 0.00000099		-0.00066128		-0.00004803
