# total energy = -34532.2039121 eV

CRYSTAL
PRIMVEC
		9.57759984		0.00000000		0.00000000
		0.00000000		5.30800161		0.00000000
		-0.49251849		0.00000000		13.28131516
PRIMECORD
   56 1
Si		1.28845056		2.54146975		4.82257724		 0.00036867		 0.00087220		-0.00028468
Si		7.79663174		2.76652994		8.45873409		-0.00036867		-0.00087220		 0.00028468
Si		8.04289099		2.54146975		1.81807938		-0.00034128		 0.00070006		-0.00022219
Si		1.04219227		2.76652994		11.46323195		 0.00034128		-0.00070006		 0.00022219
Si		6.07725048		5.19546960		4.82257724		 0.00036860		 0.00087222		-0.00028436
Si		3.00783278		0.11253009		8.45873409		-0.00036860		-0.00087222		 0.00028436
Si		3.25409107		5.19546960		1.81807938		-0.00034101		 0.00069964		-0.00022233
Si		5.83099219		0.11253009		11.46323195		 0.00034101		-0.00069964		 0.00022233
Mg		4.54254163		2.65399985		6.64065471		0.00000000		0.00000000		0.00000000
Mg		4.78879992		2.65399985		0.00000000		0.00000000		0.00000000		0.00000000
Mg		-0.24625829		0.00000000		6.64065471		0.00000000		0.00000000		0.00000000
Mg		0.00000000		0.00000000		0.00000000		0.00000000		0.00000000		0.00000000
O		0.47363243		1.13432016		4.97119477		-0.00018618		 0.00068045		-0.00010261
O		8.61145084		4.17367953		8.31011560		 0.00018618		-0.00068045		 0.00010261
O		8.85770912		1.13432016		1.66946089		 0.00015858		 0.00075662		 0.00016981
O		0.22737414		4.17367953		11.61184948		-0.00015858		-0.00075662		-0.00016981
O		5.26243234		3.78832001		4.97119477		-0.00018602		 0.00068041		-0.00010251
O		3.82265092		1.51967968		8.31011560		 0.00018602		-0.00068041		 0.00010251
O		4.06890921		3.78832001		1.66946089		 0.00015849		 0.00075600		 0.00016971
O		5.01617406		1.51967968		11.61184948		-0.00015849		-0.00075600		-0.00016971
O		2.72933437		2.43743403		5.63791544		 0.00067964		 0.00013552		 0.00071102
O		6.35574889		2.87056566		7.64339397		-0.00067964		-0.00013552		-0.00071102
O		6.60200718		2.43743403		1.00273927		-0.00059915		 0.00014300		-0.00062974
O		2.48307608		2.87056566		12.27857207		 0.00059915		-0.00014300		 0.00062974
O		7.51813429		5.09143388		5.63791544		 0.00067935		 0.00013543		 0.00071074
O		1.56694897		0.21656581		7.64339397		-0.00067935		-0.00013543		-0.00071074
O		1.81320726		5.09143388		1.00273927		-0.00059860		 0.00014315		-0.00062937
O		7.27187600		0.21656581		12.27857207		 0.00059860		-0.00014315		 0.00062937
O		0.41570423		3.65933464		5.65518194		-0.00044684		 0.00011847		 0.00038770
O		8.66937999		1.64866505		7.62612843		 0.00044684		-0.00011847		-0.00038770
O		8.91563828		3.65933464		0.98547277		 0.00040261		 0.00007777		-0.00031598
O		0.16944498		1.64866505		12.29583665		-0.00040261		-0.00007777		 0.00031598
O		5.20450319		1.00533480		5.65518194		-0.00044694		 0.00011872		 0.00038780
O		3.88058007		4.30266490		7.62612843		 0.00044694		-0.00011872		-0.00038780
O		4.12683836		1.00533480		0.98547277		 0.00040229		 0.00007844		-0.00031615
O		4.95824490		4.30266490		12.29583665		-0.00040229		-0.00007844		 0.00031615
O		1.49147940		3.11208112		3.35087463		-0.00035667		-0.00055522		 0.00013697
O		7.59360386		2.19591953		9.93043574		 0.00035667		 0.00055522		-0.00013697
O		7.83986311		3.11208112		3.28978104		 0.00031964		-0.00044818		 0.00025439
O		1.24522111		2.19591953		9.99153030		-0.00031964		 0.00044818		-0.00025439
O		6.28027932		0.45808032		3.35087463		-0.00035641		-0.00055516		 0.00013687
O		2.80480394		4.84992033		9.93043574		 0.00035641		 0.00055516		-0.00013687
O		3.05106319		0.45808032		3.28978104		 0.00031942		-0.00044802		 0.00025431
O		6.03402007		4.84992033		9.99153030		-0.00031942		 0.00044802		-0.00025431
Ca		1.63117731		2.54783981		1.18761472		-0.00026964		 0.00013352		 0.00021019
Ca		7.45390595		2.76015988		12.09369566		 0.00026964		-0.00013352		-0.00021019
Ca		7.70016424		2.54783981		5.45304095		 0.00026915		 0.00013177		-0.00028723
Ca		1.38491902		2.76015988		7.82826943		-0.00026915		-0.00013177		 0.00028723
Ca		6.41997723		5.20183966		1.18761472		-0.00026981		 0.00013340		 0.00021016
Ca		2.66510603		0.10616003		12.09369566		 0.00026981		-0.00013340		-0.00021016
Ca		2.91136432		5.20183966		5.45304095		 0.00026920		 0.00013181		-0.00028732
Ca		6.17371894		0.10616003		7.82826943		-0.00026920		-0.00013181		 0.00028732
Ca		-0.12312867		4.93166323		3.32032783		 0.00000156		-0.00022224		-0.00004647
Ca		-0.36938791		0.37633742		9.96098254		-0.00000156		 0.00022224		 0.00004647
Ca		4.66567125		2.27766338		3.32032783		 0.00000143		-0.00022225		-0.00004662
Ca		4.41941201		3.03033726		9.96098254		-0.00000143		 0.00022225		 0.00004662
