# total energy = -20635.7522016 eV

CRYSTAL
PRIMVEC
		10.05000003		0.00000000		0.00000000
		0.00000000		5.74999697		0.00000000
		0.00000000		0.00000000		4.62649741
PRIMECORD
   28 1
Si		3.34665001		0.00000000		4.15783476		 0.00019706		0.00000000		-0.00003702
Si		6.70335002		0.00000000		0.46866366		-0.00019706		0.00000000		 0.00003702
Si		8.37165002		2.87500049		4.15783476		 0.00023069		0.00000000		-0.00003078
Si		1.67835000		2.87500049		0.46866366		-0.00023069		0.00000000		 0.00003078
Mg		0.00000000		0.00000000		0.00000000		0.00000000		0.00000000		0.00000000
Mg		5.02500001		2.87500049		0.00000000		0.00000000		0.00000000		0.00000000
Mg		5.02500001		0.00000000		2.31324971		0.00000000		0.00000000		0.00000000
Mg		0.00000000		2.87500049		2.31324971		0.00000000		0.00000000		0.00000000
Mg		2.51250001		1.43749974		2.31324971		-0.00001115		-0.00000228		 0.00000390
Mg		7.53750002		4.31250024		2.31324971		 0.00001115		 0.00000228		-0.00000390
Mg		7.53750002		1.43749974		2.31324971		 0.00001115		-0.00000228		-0.00000390
Mg		2.51250001		4.31250024		2.31324971		-0.00001115		 0.00000228		 0.00000390
O		8.23497002		0.00000000		1.02708287		-0.00002773		0.00000000		-0.00020504
O		1.81503001		0.00000000		3.59941656		 0.00002773		0.00000000		 0.00020504
O		3.20997001		2.87500049		1.02708287		-0.00004855		0.00000000		-0.00018184
O		6.84003002		2.87500049		3.59941656		 0.00004855		0.00000000		 0.00018184
O		3.35770501		0.00000000		1.08861500		 0.00001821		0.00000000		 0.00014238
O		6.69229502		0.00000000		3.53788443		-0.00001821		0.00000000		-0.00014238
O		8.38270502		2.87500049		1.08861500		 0.00004219		-0.00000000		 0.00011874
O		1.66729500		2.87500049		3.53788443		-0.00004219		-0.00000000		-0.00011874
O		0.91254000		1.55422547		1.04234982		-0.00027054		-0.00003902		 0.00016167
O		9.13746003		4.19577451		3.58414860		 0.00027054		 0.00003902		-0.00016167
O		9.13746003		1.55422547		3.58414860		 0.00027054		-0.00003902		-0.00016167
O		0.91254000		4.19577451		1.04234982		-0.00027054		 0.00003902		 0.00016167
O		5.93754002		4.42922496		1.04234982		-0.00024426		-0.00004211		 0.00015086
O		4.11246001		1.32077502		3.58414860		 0.00024426		 0.00004211		-0.00015086
O		4.11246001		4.42922496		3.58414860		 0.00024426		-0.00004211		-0.00015086
O		5.93754002		1.32077502		1.04234982		-0.00024426		 0.00004211		 0.00015086
