# total energy = -20637.8077643 eV	

CRYSTAL	
PRIMVEC	
		5.10194979		0.00000000		0.00000000	
		0.00000000		10.18000204		0.00000000	
		0.00000000		0.00000000		5.97600052	
PRIMCOORD
   28 1	
Si		2.17394080		0.95590182		1.49399987		-0.00008242		 0.00004633		0.00000000	
Si		2.92800898		9.22409767		4.48199962		 0.00008242		-0.00004633		0.00000000	
Si		4.72491570		4.13409767		4.48199962		-0.00008242		-0.00004633		0.00000000	
Si		0.37703409		6.04590182		1.49399987		 0.00008242		 0.00004633		0.00000000	
Mg		0.00000000		0.00000000		0.00000000		0.00000000		-0.00000000		0.00000000	
Mg		2.55097489		5.09000000		0.00000000		0.00000000		0.00000000		-0.00000000	
Mg		0.00000000		0.00000000		2.98799975		0.00000000		-0.00000000		0.00000000	
Mg		2.55097489		5.09000000		2.98799975		0.00000000		0.00000000		-0.00000000	
Mg		5.05807302		2.82189608		1.49399987		 0.00023000		 0.00068688		0.00000000	
Mg		0.04387677		7.35810392		4.48199962		-0.00023000		-0.00068688		0.00000000	
Mg		2.50709813		2.26810392		4.48199962		 0.00023000		-0.00068688		-0.00000000	
Mg		2.59485166		7.91189557		1.49399987		-0.00023000		 0.00068688		0.00000000	
O		3.90860373		0.93554198		1.49399987		-0.00015507		-0.00042214		-0.00000000	
O		1.19334606		9.24445751		4.48199962		 0.00015507		 0.00042214		-0.00000000	
O		1.35762884		4.15445802		4.48199962		-0.00015507		 0.00042214		0.00000000	
O		3.74432095		6.02554198		1.49399987		 0.00015507		-0.00042214		0.00000000	
O		1.12344883		4.54944179		1.49399987		-0.00066353		 0.00007348		0.00000000	
O		3.97849993		5.63055770		4.48199962		 0.00066353		-0.00007348		0.00000000	
O		3.67442373		0.54055821		4.48199962		-0.00066353		-0.00007348		-0.00000000	
O		1.42752606		9.63944179		1.49399987		 0.00066353		 0.00007348		0.00000000	
O		1.41681095		1.65730410		0.19900104		-0.00021819		-0.00002367		 0.00027766	
O		3.68513782		8.52269590		5.77699897		 0.00021819		 0.00002367		-0.00027766	
O		3.96778584		3.43269590		5.77699897		-0.00021819		 0.00002367		-0.00027766	
O		1.13416293		6.74730360		0.19900104		 0.00021819		-0.00002367		 0.00027766	
O		3.68513782		8.52269590		3.18700079		 0.00021819		 0.00002367		 0.00027766	
O		1.41681095		1.65730410		2.78899871		-0.00021819		-0.00002367		-0.00027766	
O		1.13416293		6.74730360		2.78899871		 0.00021819		-0.00002367		-0.00027766	
O		3.96778584		3.43269590		3.18700079		-0.00021819		 0.00002367		 0.00027766	
