# total energy = -20638.4746571 eV	

CRYSTAL	
PRIMVEC	
		4.98329979		0.00000000		0.00000000	
		0.00000000		10.17999943		0.00000000	
		0.00000000		0.00000000		5.97599803	
PRIMCOORD
   28 1	
Si		2.12338404		0.95590205		1.49399976		 0.00024949		-0.00012947		0.00000000	
Si		2.85991575		9.22409739		4.48199977		-0.00024949		 0.00012947		0.00000000	
Si		4.61503394		4.13409767		4.48199977		 0.00024949		 0.00012947		0.00000000	
Si		0.36826585		6.04590176		1.49399976		-0.00024949		-0.00012947		0.00000000	
Mg		0.00000000		0.00000000		0.00000000		0.00000000		0.00000000		-0.00000000	
Mg		2.49164990		5.08999972		0.00000000		0.00000000		0.00000000		0.00000000	
Mg		0.00000000		0.00000000		2.98800001		0.00000000		0.00000000		-0.00000000	
Mg		2.49164990		5.08999972		2.98800001		0.00000000		0.00000000		0.00000000	
Mg		4.94044292		2.82189567		1.49399976		-0.00008694		 0.00065434		-0.00000000	
Mg		0.04285588		7.35810377		4.48199977		 0.00008694		-0.00065434		0.00000000	
Mg		2.44879402		2.26810405		4.48199977		-0.00008694		-0.00065434		0.00000000	
Mg		2.53450578		7.91189588		1.49399976		 0.00008694		 0.00065434		0.00000000	
O		3.81770597		0.93554178		1.49399976		 0.00000718		-0.00043813		0.00000000	
O		1.16559382		9.24445765		4.48199977		-0.00000718		 0.00043813		0.00000000	
O		1.32605607		4.15445794		4.48199977		 0.00000718		 0.00043813		0.00000000	
O		3.65724372		6.02554199		1.49399976		-0.00000718		-0.00043813		0.00000000	
O		1.09732311		4.54944175		1.49399976		-0.00021721		 0.00001219		0.00000000	
O		3.88597668		5.63055768		4.48199977		 0.00021721		-0.00001219		0.00000000	
O		3.58897301		0.54055796		4.48199977		-0.00021721		-0.00001219		0.00000000	
O		1.39432678		9.63944147		1.49399976		 0.00021721		 0.00001219		0.00000000	
O		1.38386185		1.65730399		0.19900110		-0.00038616		-0.00023995		 0.00035283	
O		3.59943694		8.52269545		5.77699892		 0.00038616		 0.00023995		-0.00035283	
O		3.87551175		3.43269573		5.77699892		-0.00038616		 0.00023995		-0.00035283	
O		1.10778804		6.74730370		0.19900110		 0.00038616		-0.00023995		 0.00035283	
O		3.59943694		8.52269545		3.18700111		 0.00038616		 0.00023995		 0.00035283	
O		1.38386185		1.65730399		2.78899891		-0.00038616		-0.00023995		-0.00035283	
O		1.10778804		6.74730370		2.78899891		 0.00038616		-0.00023995		-0.00035283	
O		3.87551175		3.43269573		3.18700111		-0.00038616		 0.00023995		 0.00035283	
