# total energy = -20636.139843 eV

CRYSTAL
PRIMVEC
		10.05000027		0.00000000		-0.40199961
		0.00000000		5.74999850		0.00000000
		-0.19480405		0.00000000		4.87000076
PRIMECORD
   28 1
Si		3.17158259		0.00000000		4.24280272		-0.00087349		-0.00000000		 0.00012630
Si		6.68361665		0.00000000		0.22519743		 0.00087349		-0.00000000		-0.00012630
Si		8.19658273		2.87500026		4.04180292		-0.00084580		0.00000000		 0.00010799
Si		1.65861651		2.87500026		0.42619723		 0.00084580		0.00000000		-0.00010799
Mg		0.00000000		0.00000000		0.00000000		0.00000000		0.00000000		0.00000000
Mg		5.02500014		2.87500026		-0.20099980		0.00000000		0.00000000		0.00000000
Mg		4.92760012		0.00000000		2.23399957		0.00000000		0.00000000		0.00000000
Mg		-0.09740002		2.87500026		2.43500038		0.00000000		0.00000000		0.00000000
Mg		2.41509955		1.43749963		2.33449947		-0.00001320		-0.00000318		 0.00000978
Mg		7.44009969		4.31249988		2.13349967		 0.00001320		 0.00000318		-0.00000978
Mg		7.44009969		1.43749963		2.13349967		 0.00001320		-0.00000318		-0.00000978
Mg		2.41509955		4.31249988		2.33449947		-0.00001320		 0.00000318		 0.00000978
O		8.19172470		0.00000000		0.75174068		-0.00010309		0.00000000		-0.00089404
O		1.66347555		0.00000000		3.71625847		 0.00010309		0.00000000		 0.00089404
O		3.16672456		2.87500026		0.95274149		-0.00013807		0.00000000		-0.00087002
O		6.68847568		2.87500026		3.51525866		 0.00013807		0.00000000		 0.00087002
O		3.31186907		0.00000000		1.01160313		 0.00032088		0.00000000		 0.00077780
O		6.54333117		0.00000000		3.45639702		-0.00032088		0.00000000		-0.00077780
O		8.33686920		2.87500026		0.81060332		 0.00034144		0.00000000		 0.00075791
O		1.51833104		2.87500026		3.65739682		-0.00034144		0.00000000		-0.00075791
O		0.86865228		1.55422515		1.06070948		 0.00037115		 0.00037972		 0.00014759
O		8.98654897		4.19577536		3.40728966		-0.00037115		-0.00037972		-0.00014759
O		8.98654897		1.55422515		3.40728966		-0.00037115		 0.00037972		-0.00014759
O		0.86865228		4.19577536		1.06070948		 0.00037115		-0.00037972		 0.00014759
O		5.89365241		4.42922541		0.85970867		 0.00039971		 0.00038135		 0.00012943
O		3.96154883		1.32077511		3.60828947		-0.00039971		-0.00038135		-0.00012943
O		3.96154883		4.42922541		3.60828947		-0.00039971		 0.00038135		-0.00012943
O		5.89365241		1.32077511		0.85970867		 0.00039971		-0.00038135		 0.00012943
