# total energy = -20634.5479293 eV

CRYSTAL
PRIMVEC
		10.04999687		0.00000000		-0.80399773
		0.00000000		5.74999781		0.00000000
		-0.38960291		0.00000000		4.87000114
PRIMECORD
   28 1
Si		2.99651654		0.00000000		4.10893706		-0.00065138		0.00000000		-0.00065977
Si		6.66388347		0.00000000		-0.04293667		 0.00065138		0.00000000		 0.00065977
Si		8.02151699		2.87499991		3.70693718		-0.00062513		-0.00000000		-0.00067712
Si		1.63888402		2.87499991		0.35906320		 0.00062513		-0.00000000		 0.00067712
Mg		0.00000000		0.00000000		0.00000000		0.00000000		0.00000000		0.00000000
Mg		5.02499944		2.87499991		-0.40199987		0.00000000		0.00000000		0.00000000
Mg		4.83020000		0.00000000		2.03299969		0.00000000		0.00000000		0.00000000
Mg		-0.19480045		2.87499991		2.43499956		0.00000000		0.00000000		0.00000000
Mg		2.31770028		1.43749996		2.23399963		-0.00001368		 0.00000039		 0.00002202
Mg		7.34269972		4.31249987		1.83199975		 0.00001368		-0.00000039		-0.00002202
Mg		7.34269972		1.43749996		1.83199975		 0.00001368		 0.00000039		-0.00002202
Mg		2.31770028		4.31249987		2.23399963		-0.00001368		-0.00000039		 0.00002202
O		8.14847897		0.00000000		0.42234154		 0.00071034		0.00000000		-0.00006644
O		1.51192104		0.00000000		3.64365784		-0.00071034		-0.00000000		 0.00006644
O		3.12347851		2.87499991		0.82434242		 0.00069409		-0.00000000		-0.00003288
O		6.53692048		2.87499991		3.24165696		-0.00069409		-0.00000000		 0.00003288
O		3.26603146		0.00000000		0.87729466		 0.00053091		0.00000000		 0.00086416
O		6.39436754		0.00000000		3.18870471		-0.00053091		0.00000000		-0.00086416
O		8.29103191		2.87499991		0.47529479		 0.00053293		0.00000000		 0.00082886
O		1.36936809		2.87499991		3.59070459		-0.00053293		0.00000000		-0.00082886
O		0.82476284		1.55422456		1.02420812		-0.00020967		 0.00053002		-0.00043865
O		8.83563716		4.19577527		3.04179226		 0.00020967		-0.00053002		 0.00043865
O		8.83563716		1.55422456		3.04179226		 0.00020967		 0.00053002		 0.00043865
O		0.82476284		4.19577527		1.02420812		-0.00020967		-0.00053002		-0.00043865
O		5.84976330		4.42922447		0.62220825		-0.00018499		 0.00053129		-0.00046059
O		3.81063671		1.32077535		3.44379214		 0.00018499		-0.00053129		 0.00046059
O		3.81063671		4.42922447		3.44379214		 0.00018499		 0.00053129		 0.00046059
O		5.84976330		1.32077535		0.62220825		-0.00018499		-0.00053129		-0.00046059
