# total energy = -20636.1488108 eV

CRYSTAL
PRIMVEC
		10.05000027		0.00000000		0.40199961
		0.00000000		5.74999850		0.00000000
		0.19480405		0.00000000		4.87000076
PRIMECORD
   28 1
Si		3.52171693		0.00000000		4.51053458		 0.00080999		0.00000000		 0.00002717
Si		6.72308338		0.00000000		0.76146479		-0.00080999		0.00000000		-0.00002717
Si		8.54671706		2.87500026		4.71153539		 0.00083733		0.00000000		 0.00002994
Si		1.69808324		2.87500026		0.56046498		-0.00083733		0.00000000		-0.00002994
Mg		0.00000000		0.00000000		0.00000000		0.00000000		0.00000000		0.00000000
Mg		5.02500014		2.87500026		0.20099980		0.00000000		0.00000000		0.00000000
Mg		5.12240015		0.00000000		2.63600019		0.00000000		0.00000000		0.00000000
Mg		0.09740002		2.87500026		2.43500038		0.00000000		0.00000000		0.00000000
Mg		2.60989958		1.43749963		2.53550028		-0.00001674		-0.00000024		 0.00000010
Mg		7.63489972		4.31249988		2.73650009		 0.00001674		 0.00000024		-0.00000010
Mg		7.63489972		1.43749963		2.73650009		 0.00001674		-0.00000024		-0.00000010
Mg		2.60989958		4.31249988		2.53550028		-0.00001674		 0.00000024		 0.00000010
O		8.27821576		0.00000000		1.41053906		-0.00057990		0.00000000		 0.00088081
O		1.96658353		0.00000000		3.86146131		 0.00057990		0.00000000		-0.00088081
O		3.25321563		2.87500026		1.20953925		-0.00060681		0.00000000		 0.00088135
O		6.99158367		2.87500026		4.06246112		 0.00060681		0.00000000		-0.00088135
O		3.40354204		0.00000000		1.28021909		 0.00024904		0.00000000		 0.00037312
O		6.84125927		0.00000000		3.99178128		-0.00024904		0.00000000		-0.00037312
O		8.42854217		2.87500026		1.48121889		 0.00027747		-0.00000000		 0.00036763
O		1.81625914		2.87500026		3.79078047		-0.00027747		-0.00000000		-0.00036763
O		0.95642776		1.55422515		1.13371272		 0.00005167		 0.00024357		-0.00041389
O		9.28837154		4.19577536		4.13828664		-0.00005167		-0.00024357		 0.00041389
O		9.28837154		1.55422515		4.13828664		-0.00005167		 0.00024357		 0.00041389
O		0.95642776		4.19577536		1.13371272		 0.00005167		-0.00024357		-0.00041389
O		5.98142789		4.42922541		1.33471253		 0.00007230		 0.00024534		-0.00041512
O		4.26337241		1.32077511		3.93728684		-0.00007230		-0.00024534		 0.00041512
O		4.26337241		4.42922541		3.93728684		-0.00007230		 0.00024534		 0.00041512
O		5.98142789		1.32077511		1.33471253		 0.00007230		-0.00024534		-0.00041512
