# total energy = -20627.4848901 eV

CRYSTAL
PRIMVEC
		10.05000369		0.00000000		-1.60800507
		0.00000000		5.75000408		0.00000000
		-0.77920426		0.00000000		4.86999863
PRIMECORD
   28 1
Si		2.64638260		0.00000000		3.84120453		-0.00018697		0.00000000		 0.00046957
Si		6.62441683		0.00000000		-0.57920487		 0.00018697		0.00000000		-0.00046957
Si		7.67138343		2.87500001		3.03720505		-0.00013435		-0.00000000		 0.00039875
Si		1.59941702		2.87500001		0.22479461		 0.00013435		-0.00000000		-0.00039875
Mg		0.00000000		0.00000000		0.00000000		0.00000000		0.00000000		0.00000000
Mg		5.02499981		2.87500001		-0.80400050		0.00000000		0.00000000		0.00000000
Mg		4.63539971		0.00000000		1.63099983		0.00000000		0.00000000		0.00000000
Mg		-0.38960009		2.87500001		2.43500033		0.00000000		0.00000000		0.00000000
Mg		2.12290032		1.43750000		2.03299957		-0.00003178		 0.00000402		 0.00002560
Mg		7.14790013		4.31250001		1.22900009		 0.00003178		-0.00000402		-0.00002560
Mg		7.14790013		1.43750000		1.22900009		 0.00003178		 0.00000402		-0.00002560
Mg		2.12290032		4.31250001		2.03299957		-0.00003178		-0.00000402		 0.00002560
O		8.06198807		0.00000000		-0.23645535		 0.00054569		0.00000000		 0.00040066
O		1.20881237		0.00000000		3.49845501		-0.00054569		0.00000000		-0.00040066
O		3.03698827		2.87500001		0.56754515		 0.00052482		0.00000000		 0.00047377
O		6.23381218		2.87500001		2.69445452		-0.00052482		0.00000000		-0.00047377
O		3.17435941		0.00000000		0.60867782		 0.00033436		0.00000000		 0.00046132
O		6.09644103		0.00000000		2.65332185		-0.00033436		0.00000000		-0.00046132
O		8.19935922		2.87500001		-0.19532166		 0.00034022		-0.00000000		 0.00043522
O		1.07144122		2.87500001		3.45732234		-0.00034022		-0.00000000		-0.00043522
O		0.73698561		1.55422543		0.95120546		-0.00014323		 0.00023720		 0.00025634
O		8.53381381		4.19577458		2.31079522		 0.00014323		-0.00023720		-0.00025634
O		8.53381381		1.55422543		2.31079522		 0.00014323		 0.00023720		-0.00025634
O		0.73698561		4.19577458		0.95120546		-0.00014323		-0.00023720		 0.00025634
O		5.76198644		4.42922544		0.14720497		-0.00012177		 0.00022976		 0.00021351
O		3.50881401		1.32077458		3.11479470		 0.00012177		-0.00022976		-0.00021351
O		3.50881401		4.42922544		3.11479470		 0.00012177		 0.00022976		-0.00021351
O		5.76198644		1.32077458		0.14720497		-0.00012177		-0.00022976		 0.00021351
