# total energy = -21541.8040276 eV

CRYSTAL
PRIMVEC
		5.20006912		0.00164358		0.01839049
		0.00381601		8.95529006		0.04139544
		-0.11891339		-0.07359823		8.79608560
PRIMECORD
   42 1
Mg		0.00002178		0.00000000		-0.00001400		 0.00000658		 0.00000409		 0.00000992
Mg		2.60193894		4.47846890		0.02989452		-0.00000168		-0.00000379		 0.00000124
Mg		2.60111144		1.48542702		0.01388282		-0.00014222		-0.00003982		 0.00008414
Mg		2.60281465		7.47151803		0.04590933		 0.00012002		 0.00004486		-0.00005621
Mg		0.00297245		5.96225389		0.02538271		-0.00012791		-0.00005629		 0.00007134
Mg		0.00084979		2.99303876		0.01600651		 0.00013443		 0.00005118		-0.00007019
Si		4.32868988		1.47429059		2.73292565		 0.00000634		 0.00006155		-0.00023451
Si		0.75626787		7.40901993		6.12295106		 0.00002797		 0.00001056		 0.00021901
Si		1.73057577		5.95115738		2.74442865		-0.00001873		-0.00006501		-0.00022665
Si		3.35441102		2.93220343		6.11143925		-0.00001269		-0.00000529		 0.00023384
Si		1.72988671		2.98071812		2.72965248		-0.00003162		-0.00005919		-0.00015120
Si		3.35507986		5.90262143		6.12622526		 0.00003483		 0.00003471		 0.00013271
Si		4.33183913		7.45920102		2.75953715		-0.00003772		-0.00010012		-0.00013887
Si		0.75313988		1.42413439		6.09632919		 0.00003554		 0.00012252		 0.00014817
O		1.72853762		2.99136044		1.10853770		 0.00016716		 0.00005669		-0.00014675
O		3.35642894		5.89197756		7.74733435		-0.00016357		-0.00005142		 0.00014168
O		4.33049160		7.46983660		1.13842133		 0.00017025		 0.00005352		-0.00012897
O		0.75452267		1.41350970		7.71744709		-0.00017499		-0.00006189		 0.00013585
O		4.32470432		1.47757879		1.11147333		 0.00039075		 0.00026939		-0.00017102
O		0.76030061		7.40575195		7.74439094		-0.00039325		-0.00026844		 0.00018590
O		1.72658036		5.95441032		1.12299033		 0.00038611		 0.00027415		-0.00019557
O		3.35839606		2.92893286		7.73288638		-0.00038500		-0.00027146		 0.00018189
O		1.72926142		-0.00220458		1.08606574		 0.00011084		-0.00033743		-0.00049888
O		3.35190728		-0.06973089		7.72857107		-0.00010657		 0.00032353		-0.00009323
O		4.33119725		4.47626484		1.11588248		 0.00010856		-0.00033281		-0.00023643
O		0.75377502		4.40706694		7.73994549		-0.00010868		 0.00034145		 0.00038142
O		1.38010714		4.46295701		3.31490077		-0.00015580		-0.00027393		-0.00020263
O		3.70486461		4.42035558		5.54097075		 0.00015816		 0.00035644		 0.00019737
O		3.97822437		-0.01384705		3.30338637		-0.00016069		-0.00034664		-0.00018112
O		1.10294641		-0.05808428		5.51109594		 0.00015814		 0.00026553		 0.00018932
O		3.21270577		2.54284155		3.24708825		-0.00010441		-0.00012204		-0.00013201
O		1.87224990		6.34048763		5.60878327		 0.00012839		 0.00011169		 0.00012814
O		0.61461136		7.01966168		3.25858866		-0.00017360		-0.00007568		-0.00012004
O		4.47038268		1.86368876		5.59727716		 0.00015170		 0.00008249		 0.00012779
O		0.61320784		1.90654217		3.22945579		-0.00036908		-0.00033938		 0.00056009
O		4.47177221		6.97680827		5.62642351		 0.00032596		 0.00031905		-0.00056646
O		3.21513381		6.38498462		3.25934460		-0.00028255		-0.00028080		 0.00056190
O		1.86983327		2.49833886		5.59651500		 0.00032697		 0.00030425		-0.00055196
H		1.71228742		-0.00033338		2.04836408		 0.00023060		-0.00027509		 0.00022064
H		3.37246294		8.88360709		6.80736020		-0.00022906		 0.00028301		 0.00032813
H		4.31418229		4.47813033		2.07832029		 0.00024004		-0.00027755		-0.00003029
H		0.77084131		4.40522789		6.77758493		-0.00023949		 0.00027339		-0.00010753
