# total energy = -21542.4803543 eV

CRYSTAL
PRIMVEC
		5.36838847		-0.00106288		-0.02273535
		-0.00085549		9.29703578		0.02447744
		-0.15274939		-0.05893044		11.47669454
PRIMECORD
   42 1
Mg		0.00001452		-0.00003733		0.00000622		 0.00000321		 0.00001559		-0.00000117
Mg		2.68375508		4.64798334		0.00091045		-0.00000163		 0.00000464		-0.00000647
Mg		2.68435237		1.54737345		-0.00879809		-0.00002888		-0.00008735		 0.00006777
Mg		2.68314172		7.74859114		0.01054588		 0.00004703		 0.00009539		-0.00007080
Mg		-0.00025457		6.19655500		0.01484097		-0.00003029		-0.00011843		 0.00006332
Mg		-0.00067921		3.10051655		0.00960795		 0.00004911		 0.00010610		-0.00005144
Si		4.48639231		1.53869721		2.72692372		 0.00028839		 0.00033366		 0.00010831
Si		0.72840113		7.69831103		8.75144551		-0.00028858		-0.00030040		 0.00005936
Si		1.80169567		6.18780720		2.75051819		 0.00031215		 0.00030934		 0.00020041
Si		3.41307910		3.04923733		8.72790963		-0.00030747		-0.00033136		-0.00018372
Si		1.80229710		3.08778994		2.74233917		 0.00005111		 0.00012721		 0.00017377
Si		3.41248026		6.14924214		8.73602747		-0.00004824		-0.00013164		-0.00001094
Si		4.48614862		7.73566181		2.74335228		 0.00001503		 0.00019048		-0.00002547
Si		0.72864430		1.50136613		8.73505687		-0.00001618		-0.00017725		 0.00006466
O		1.79559523		3.09281972		1.10644355		 0.00035614		-0.00048743		-0.00012280
O		3.41915413		6.14420200		10.37204078		-0.00035825		 0.00049473		-0.00000817
O		4.47925284		7.74081913		1.10731097		 0.00040934		-0.00050364		 0.00002490
O		0.73551986		1.49623525		10.37112048		-0.00039830		 0.00050071		-0.00004286
O		4.48146260		1.54617058		1.09073620		-0.00044908		 0.00050115		-0.00010513
O		0.73331010		7.69085010		10.38776005		 0.00046309		-0.00050016		-0.00003491
O		1.79682040		6.19516599		1.11440481		-0.00046648		 0.00053086		-0.00016452
O		3.41794297		3.04188787		10.36404063		 0.00045779		-0.00053010		 0.00014618
O		1.79346894		-0.00108984		1.03722337		-0.00071829		-0.00044914		-0.00005828
O		3.42232049		-0.05883141		10.41673894		 0.00067099		 0.00042556		 0.00007782
O		4.47765592		4.64718747		1.03811826		-0.00084169		-0.00053825		-0.00016083
O		0.73712507		4.58988817		10.44035726		 0.00083541		 0.00052946		 0.00011044
O		1.82800801		4.63639634		3.29519749		 0.00003725		 0.00020227		-0.00014577
O		3.38681809		4.60064611		8.18323240		-0.00004731		-0.00020750		 0.00013035
O		4.51263206		-0.01272765		3.27154859		 0.00004504		 0.00025879		-0.00011975
O		0.70304642		-0.04729574		8.18242824		-0.00004905		-0.00024463		 0.00010267
O		3.13548959		2.29219588		3.28498033		-0.00012377		-0.00016886		-0.00006947
O		2.07932407		6.94488598		8.19342934		 0.00012661		 0.00015384		 0.00005221
O		0.45088212		6.94126388		3.30900617		-0.00008312		-0.00018922		-0.00016658
O		4.76392790		2.29581176		8.16945172		 0.00007116		 0.00018619		 0.00015805
O		0.45125595		2.33201774		3.29673738		 0.00010936		 0.00005829		 0.00010970
O		4.76353075		6.90502109		8.18173347		-0.00011395		-0.00006715		-0.00014244
O		3.13503125		6.98000055		3.29745703		 0.00006143		 0.00003189		 0.00018160
O		2.07975389		2.25703672		8.18092153		-0.00005147		-0.00002754		-0.00016781
H		1.78930399		-0.00098459		2.00059807		-0.00004485		-0.00015290		-0.00000858
H		3.42540286		9.23800268		9.47785360		 0.00005582		 0.00015766		-0.00000985
H		4.47297819		4.64687223		2.00143386		-0.00003299		-0.00013917		 0.00009433
H		0.74178206		4.59016037		9.47701677		 0.00003443		 0.00013831		-0.00004807
