# total energy = -21541.7766393 eV

CRYSTAL
PRIMVEC
		5.46939874		-0.00056514		-0.01496852
		-0.00054440		9.46192278		-0.00172654
		-0.10527736		-0.05887340		12.21817796
PRIMECORD
   42 1
Mg		0.00013221		-0.00001193		-0.00001193		-0.00007123		 0.00002762		-0.00001932
Mg		2.73451583		4.73066119		-0.00830449		-0.00003812		 0.00008696		-0.00001082
Mg		2.73441265		1.57165387		-0.00728983		 0.00006129		-0.00030880		-0.00017458
Mg		2.73454745		7.88977532		-0.00940212		-0.00008532		 0.00019781		 0.00016511
Mg		-0.00058122		6.30289369		-0.00072950		 0.00008235		-0.00027219		-0.00016227
Mg		0.00010733		3.15906539		-0.00109399		-0.00007229		 0.00024326		 0.00016774
Si		4.56562072		1.57131012		2.71506505		 0.00009513		 0.00025889		-0.00020429
Si		0.79792619		7.83116115		9.48681397		-0.00009242		-0.00021212		-0.00063749
Si		1.83063411		6.30259141		2.72189032		 0.00010085		 0.00014944		-0.00067447
Si		3.53288791		3.09991771		9.48024535		-0.00008982		-0.00020829		-0.00079637
Si		1.83117955		3.14719064		2.72211275		-0.00004705		 0.00003182		 0.00033480
Si		3.53233054		6.25528219		9.47899996		 0.00007470		-0.00004974		 0.00054414
Si		4.56562279		7.87785131		2.71392232		-0.00005379		 0.00010137		-0.00008147
Si		0.79791737		1.52460907		9.48739052		 0.00007151		-0.00005490		 0.00040345
O		1.82661848		3.14870201		1.08594078		 0.00043806		-0.00027783		 0.00002808
O		3.53696057		6.25379467		11.11588898		-0.00041088		 0.00026891		-0.00073193
O		4.56108039		7.87938083		1.07743149		 0.00042054		-0.00026573		 0.00038747
O		0.80257073		1.52311429		11.12418622		-0.00042262		 0.00028708		-0.00060602
O		4.56119549		1.57578149		1.07842801		 0.00029629		 0.00055058		 0.00048763
O		0.80247688		7.82670378		11.12276092		-0.00035440		-0.00052664		 0.00014318
O		1.82618918		6.30703945		1.08490123		 0.00031411		 0.00054529		 0.00088098
O		3.53742460		3.09547071		11.11608860		-0.00034764		-0.00054247		 0.00029269
O		1.82027540		-0.00186031		1.02402027		 0.00010578		 0.00008844		-0.00123590
O		3.54351674		-0.05768919		11.17905799		 0.00000820		-0.00004619		 0.00153918
O		4.55494210		4.72891806		1.01568778		 0.00004631		 0.00003278		-0.00136068
O		0.80863954		4.67360402		11.18573187		-0.00001607		-0.00009329		 0.00130017
O		1.84519614		4.72502946		3.25109870		 0.00021113		 0.00001050		-0.00091017
O		3.51831862		4.67753203		8.95037332		-0.00022100		-0.00029076		 0.00095301
O		4.58022319		-0.00620413		3.24446008		 0.00020397		-0.00002601		-0.00090847
O		0.78390649		-0.05315768		8.95873432		-0.00022365		-0.00025331		 0.00094788
O		3.19249957		2.34643770		3.24632194		-0.00002484		 0.00036029		-0.00002912
O		2.17112666		7.05604083		8.95519103		-0.00020650		-0.00024167		 0.00000885
O		0.45753318		7.07768426		3.25294449		-0.00004596		 0.00037440		 0.00004428
O		4.90610030		2.32479635		8.94857004		-0.00021034		-0.00023941		 0.00003798
O		0.45934683		2.36981234		3.25318454		-0.00012775		 0.00022955		 0.00020032
O		4.90413215		7.03259102		8.94837665		 0.00037488		-0.00008186		-0.00022013
O		3.19377037		7.10048701		3.24478465		-0.00010628		 0.00024531		 0.00027523
O		2.16970447		2.30191686		8.95669151		 0.00037897		-0.00007960		-0.00019345
H		1.81698097		-0.00384971		1.98732965		-0.00007968		 0.00015736		 0.00107599
H		3.54641660		9.40627692		10.21416362		 0.00007370		-0.00016330		-0.00133247
H		4.55174204		4.72694317		1.97893338		-0.00008690		 0.00015140		 0.00119109
H		0.81205891		4.67561832		10.22244478		 0.00007679		-0.00016496		-0.00111985
