# total energy = -10831.6643826 eV

CRYSTAL
PRIMVEC
		2.95498734		0.00000000		0.00000000
		-1.47749367		2.55909302		0.00000000
		0.00000000		0.00000000		14.12652225
PRIMECORD
   13 1
Mg		1.47749337		0.85303111		2.38133140		0.00000000		-0.00000000		-0.00007940
Mg		0.00000000		1.70606221		11.74518691		-0.00000005		-0.00000001		 0.00008594
Mg		0.00000000		0.00000000		-0.00000364		 0.00000007		 0.00000002		 0.00000455
Mg		0.00000000		1.70606252		4.77508005		 0.00000007		 0.00000001		 0.00018254
Mg		1.47749397		0.85303111		9.35144432		-0.00000005		-0.00000001		-0.00018953
O		1.47749397		0.85303111		12.93588520		-0.00000004		-0.00000003		-0.00014187
O		0.00000000		1.70606252		1.19063705		-0.00000017		-0.00000001		 0.00013462
O		1.47749337		0.85303141		5.84487733		-0.00000009		-0.00000002		-0.00002197
O		0.00000000		1.70606221		8.28161944		-0.00000010		0.00000000		 0.00013748
O		0.00000000		0.00000000		10.54998458		 0.00000026		 0.00000004		 0.00009679
O		0.00000000		0.00000000		3.57653858		 0.00000011		 0.00000002		-0.00010279
H		1.47749337		0.85303111		6.80510056		-0.00000001		-0.00000000		 0.00002502
H		0.00000000		1.70606221		7.32145352		-0.00000001		-0.00000000		-0.00013138
