# total energy = -10831.5549778 eV

CRYSTAL
PRIMVEC
		3.08753123		0.00000606		-0.00000303
		-1.54376107		2.67388454		0.00000606
		-0.00002729		0.00002729		18.84516949
PRIMECORD
   13 1
Mg		1.54376167		0.89130314		2.40905692		 0.00000005		-0.00000017		 0.00010325
Mg		-0.00001940		1.78261264		16.43623659		-0.00000016		 0.00000024		-0.00011427
Mg		0.00000000		0.00000000		0.00011461		 0.00000018		-0.00000008		-0.00001710
Mg		-0.00000697		1.78259778		4.83750650		 0.00000087		-0.00000104		 0.00006831
Mg		1.54374954		0.89132011		14.00759022		-0.00000082		 0.00000107		-0.00008167
O		1.54374196		0.89132254		17.64040606		-0.00000009		 0.00000026		 0.00014369
O		0.00000000		1.78259475		1.20495506		 0.00000013		-0.00000035		-0.00016141
O		1.54376531		0.89129677		5.88415144		-0.00000072		 0.00000093		 0.00025319
O		-0.00002304		1.78262264		12.96077034		 0.00000074		-0.00000122		 0.00006229
O		-0.00002092		0.00002183		15.22683389		-0.00000002		 0.00000026		-0.00017696
O		-0.00000667		0.00000515		3.61834865		-0.00000009		 0.00000009		 0.00017106
H		1.54375530		0.89130526		6.84314125		 0.00000013		-0.00000009		-0.00012513
H		-0.00000910		1.78261112		12.00191879		-0.00000020		 0.00000010		-0.00012523
