# total energy = -10831.412125 eV

CRYSTAL
PRIMVEC
		3.12520989		-0.00000303		0.00000000
		-1.56260798		2.70650280		-0.00000303
		0.00002426		-0.00001516		19.17643370
PRIMECORD
   13 1
Mg		1.56261404		0.90216315		2.39943486		 0.00000022		-0.00000003		-0.00003973
Mg		0.00001486		1.80432509		16.77691728		 0.00000009		 0.00000009		 0.00010343
Mg		0.00000000		0.00000000		0.00003093		 0.00000019		 0.00000009		-0.00001889
Mg		0.00000697		1.80432661		4.82035024		-0.00000142		 0.00000013		-0.00013115
Mg		1.56262071		0.90215770		14.35602283		 0.00000168		 0.00000005		 0.00017497
O		1.56262708		0.90215436		17.97657392		-0.00000017		 0.00000017		 0.00001282
O		0.00000606		1.80433510		1.19992103		-0.00000039		-0.00000035		-0.00003515
O		1.56259797		0.90216255		5.85699624		 0.00000231		-0.00000025		-0.00038323
O		0.00003062		1.80432024		13.31950568		-0.00000240		 0.00000054		 0.00014210
O		0.00000940		-0.00000455		15.57182305		 0.00000141		-0.00000086		-0.00006030
O		0.00001637		-0.00000728		3.60463915		-0.00000152		 0.00000043		 0.00002759
H		1.56261071		0.90216255		6.81643206		 0.00000002		-0.00000005		 0.00031151
H		0.00001910		1.80432388		12.35995526		-0.00000003		 0.00000004		-0.00010398
