# total energy = -10831.8948963 eV

CRYSTAL
PRIMVEC
		3.00346902		0.00000000		0.00000000
		-1.50173451		2.60108016		0.00000000
		0.00000000		0.00000000		14.45887797
PRIMECORD
   13 1
Mg		1.50173451		0.86702682		2.41393328		0.00000000		0.00000000		 0.00024533
Mg		0.00000000		1.73405364		12.04495288		 0.00000001		-0.00000000		-0.00027117
Mg		0.00000000		0.00000000		0.00000364		0.00000000		-0.00000001		-0.00001264
Mg		0.00000000		1.73405364		4.84280159		 0.00000001		-0.00000000		-0.00008214
Mg		1.50173421		0.86702682		9.61606911		 0.00000002		0.00000000		 0.00011400
O		1.50173451		0.86702682		13.25269041		-0.00000001		 0.00000001		-0.00063248
O		0.00000000		1.73405364		1.20618302		-0.00000000		0.00000000		 0.00065750
O		1.50173451		0.86702682		5.91438109		-0.00000000		0.00000000		-0.00059532
O		0.00000000		1.73405364		8.54463151		-0.00000001		-0.00000000		 0.00008230
O		0.00000000		0.00000000		10.83206641		-0.00000001		-0.00000000		 0.00053981
O		0.00000000		0.00000000		3.62680611		-0.00000000		-0.00000000		-0.00051389
H		1.50173421		0.86702682		6.87532563		-0.00000000		-0.00000000		 0.00059554
H		0.00000000		1.73405364		7.58343107		0.00000000		0.00000000		-0.00012685
