# total energy = -35726.6730545 eV	

CRYSTAL	
PRIMVEC	
		7.63566806		0.00001572		-0.00000786	
		-3.81781831		6.61263433		0.00000786	
		-0.00000786		0.00000786		9.61658935	
PRIMCOORD
   46 1	
Mg		1.22988616		3.09670105		3.60898115		 0.00063643		-0.00040333		 0.00039889	
Mg		0.52107263		6.12940983		3.60898036		 0.00003559		 0.00075068		 0.00039865	
Mg		-1.75093992		3.99918686		3.60897172		-0.00066879		-0.00034505		 0.00040213	
Mg		2.58794158		3.51596865		8.41726718		-0.00063020		 0.00040323		 0.00039702	
Mg		3.29675197		0.48323786		8.41727032		-0.00003130		-0.00074892		 0.00039673	
Mg		5.56880618		2.61346555		8.41727268		 0.00066249		 0.00034713		 0.00039878	
Mg		0.61983965		1.64026926		1.12030258		 0.00033052		-0.00017839		-0.00093606	
Mg		2.08741970		6.32933655		1.12029079		-0.00001258		 0.00037044		-0.00092958	
Mg		-2.70723578		5.25570215		1.12030808		-0.00031439		-0.00019827		-0.00093362	
Mg		3.19799673		4.97238865		5.92858074		-0.00033075		 0.00017326		-0.00092941	
Mg		1.73042140		0.28333236		5.92857760		 0.00001719		-0.00037242		-0.00092862	
Mg		6.52509496		1.35696520		5.92857760		 0.00030880		 0.00019659		-0.00092745	
Mg		0.00001493		4.40845066		0.97306895		-0.00000215		-0.00000303		 0.00089114	
Mg		3.81782538		2.20422140		5.78136047		 0.00000297		 0.00000051		 0.00089020	
Si		3.81782853		2.20422533		1.62815261		-0.00000284		-0.00000040		 0.00017002	
Si		0.00001100		4.40843415		6.43644335		-0.00000002		-0.00000024		 0.00017451	
Si		0.00000000		0.00000943		3.82373476		-0.00000194		-0.00000136		 0.00025983	
Si		0.00000000		0.00000000		8.63199720		-0.00000185		-0.00000033		 0.00034835	
O		1.46470633		0.21311002		9.35953318		-0.00030622		 0.00013015		-0.00051493	
O		6.71875466		1.16192758		9.35954261		 0.00004299		-0.00033083		-0.00051772	
O		3.27005917		5.23762110		9.35953318		 0.00026425		 0.00020422		-0.00051530	
O		2.35314185		6.39954789		4.55124008		 0.00029326		-0.00013093		-0.00050618	
O		-2.90090570		5.45074448		4.55124637		-0.00003405		 0.00031609		-0.00050420	
O		0.54777328		1.37503760		4.55123615		-0.00025785		-0.00018929		-0.00050394	
O		3.27527999		0.62562483		4.77940178		-0.00034935		-0.00088828		 0.00087077	
O		5.45621446		2.52369070		4.77940650		 0.00094025		 0.00013748		 0.00087506	
O		2.72198013		3.46337067		4.77939864		-0.00058867		 0.00074630		 0.00087557	
O		0.54256033		5.98704330		9.58770196		 0.00035172		 0.00088902		 0.00087012	
O		-1.63837807		4.08897349		9.58770668		-0.00094117		-0.00013629		 0.00087633	
O		1.09584132		3.14929432		9.58768938		 0.00059123		-0.00074817		 0.00087470	
O		2.28137260		2.01383551		2.18110819		 0.00065659		-0.00019251		-0.00035627	
O		4.75093964		0.96882360		2.18111133		-0.00015938		 0.00065753		-0.00035481	
O		4.42117098		3.63001767		2.18111683		-0.00048968		-0.00046655		-0.00035499	
O		1.53646064		4.59882240		6.98939343		-0.00065018		 0.00019385		-0.00035499	
O		-0.93310404		5.64383510		6.98939893		 0.00016024		-0.00065806		-0.00035430	
O		-0.60333145		2.98263788		6.98940679		 0.00049240		 0.00046921		-0.00035461	
O		-0.41986734		2.96323159		2.37817691		-0.00018586		 0.00001899		-0.00023426	
O		1.46155828		4.76740697		2.37815490		 0.00007421		-0.00016262		-0.00022921	
O		-1.04162569		5.49464740		2.37818398		 0.00010171		 0.00014813		-0.00023595	
O		4.23773674		3.64940667		7.18646844		 0.00017665		-0.00001250		-0.00023446	
O		2.35628833		1.84526116		7.18644721		-0.00007678		 0.00016055		-0.00022867	
O		4.85947230		1.11799951		7.18647865		-0.00010180		-0.00014636		-0.00023744	
O		3.81783246		2.20421904		-0.02412562		-0.00000058		 0.00000060		 0.00064286	
O		0.00000000		4.40843415		4.78417063		 0.00000078		 0.00000017		 0.00063986	
O		0.00000865		0.00000000		2.20065597		-0.00000280		 0.00000040		 0.00029226	
O		-0.00000865		0.00000000		7.00897265		 0.00000091		-0.00000042		 0.00023318	
