# total energy = -35725.7460274 eV	

CRYSTAL	
PRIMVEC	
		7.51012335		0.00000786		0.00000000	
		-3.75505381		6.50394997		0.00000786	
		0.00000000		0.00000786		9.53589551	
PRIMCOORD
   46 1	
Mg		1.20285223		3.03550469		3.57536894		 0.00052612		 0.00000596		 0.00035787	
Mg		0.52481335		6.02790271		3.57538151		-0.00026348		 0.00044954		 0.00035177	
Mg		-1.72765693		3.94450119		3.57537837		-0.00025882		-0.00045932		 0.00035699	
Mg		2.55222831		3.46845550		8.34332455		-0.00053041		-0.00000152		 0.00036121	
Mg		3.23026248		0.47606220		8.34332769		 0.00026506		-0.00045639		 0.00035811	
Mg		5.48272096		2.55946450		8.34332534		 0.00026191		 0.00045541		 0.00035762	
Mg		0.60188280		1.61325892		1.11900013		-0.00008476		-0.00021866		-0.00089628	
Mg		2.05700585		6.21857000		1.11899698		 0.00023048		 0.00003493		-0.00089333	
Mg		-2.65887528		5.17607338		1.11899934		-0.00014556		 0.00018362		-0.00089537	
Mg		3.15319067		4.89069655		5.88694867		 0.00008683		 0.00022749		-0.00089545	
Mg		1.69806998		0.28539255		5.88694631		-0.00024460		-0.00004103		-0.00089646	
Mg		6.41392910		1.32788287		5.88694552		 0.00015065		-0.00018449		-0.00089786	
Mg		0.00000000		4.33597477		0.94928839		-0.00000197		-0.00000034		 0.00054727	
Mg		3.75506403		2.16797992		5.71722200		 0.00000587		 0.00000444		 0.00054643	
Si		3.75506561		2.16798699		1.63958699		 0.00000221		 0.00000339		-0.00019979	
Si		0.00001022		4.33596926		6.40753081		-0.00000166		-0.00000282		-0.00019807	
Si		0.00000000		0.00000000		3.79783114		-0.00000088		-0.00000084		 0.00013275	
Si		0.00000000		0.00000000		8.56580719		 0.00000056		-0.00000090		 0.00004213	
O		1.45384103		0.22626030		9.29772843		-0.00050148		 0.00015093		-0.00048061	
O		6.58725657		1.14593580		9.29773236		 0.00012253		-0.00050594		-0.00048004	
O		3.22410236		5.13176880		9.29773786		 0.00037786		 0.00036020		-0.00048101	
O		2.30122300		6.27769674		4.52979168		 0.00051511		-0.00014544		-0.00049149	
O		-2.83219253		5.35801731		4.52978853		-0.00012924		 0.00051942		-0.00048987	
O		0.53097268		1.37219846		4.52978932		-0.00038455		-0.00037362		-0.00049131	
O		3.18764629		0.63058704		4.69336294		-0.00041714		-0.00022251		 0.00050877	
O		5.37018820		2.44530308		4.69336373		 0.00040140		-0.00024990		 0.00051066	
O		2.70734425		3.42808500		4.69336766		 0.00001262		 0.00046880		 0.00050725	
O		0.56741774		5.87336921		9.46131777		 0.00041744		 0.00022199		 0.00051127	
O		-1.61512338		4.05866103		9.46131384		-0.00039890		 0.00025044		 0.00051316	
O		1.04772529		3.07588934		9.46130991		-0.00001422		-0.00047243		 0.00051055	
O		2.23484591		1.92368102		2.19214798		 0.00072240		 0.00036545		-0.00001633	
O		4.72675114		0.97359087		2.19214562		-0.00068020		 0.00044413		-0.00001596	
O		4.30359976		3.60669537		2.19214562		-0.00004615		-0.00081596		-0.00001539	
O		1.52023384		4.58027603		6.96008866		-0.00072828		-0.00036813		-0.00001377	
O		-0.97167531		5.53037010		6.96009180		 0.00068221		-0.00044571		-0.00001373	
O		-0.54853023		2.89726402		6.96009416		 0.00004650		 0.00081620		-0.00001539	
O		-0.44371706		2.91629224		2.34260826		 0.00012741		-0.00029308		-0.00003330	
O		1.45135796		4.66153030		2.34260669		 0.00018812		 0.00025982		-0.00003264	
O		-1.00761339		5.43008997		2.34260905		-0.00031844		 0.00003451		-0.00003267	
O		4.19878267		3.58767030		7.11055681		-0.00012618		 0.00028946		-0.00003333	
O		2.30371629		1.84242517		7.11054973		-0.00018742		-0.00025237		-0.00002950	
O		4.76267271		1.07388436		7.11055052		 0.00031608		-0.00003532		-0.00003025	
O		3.75506168		2.16798856		-0.01203097		-0.00000003		-0.00000107		 0.00068350	
O		0.00000000		4.33597084		4.75591442		 0.00000043		-0.00000020		 0.00068306	
O		0.00000000		0.00000000		2.18668664		 0.00000078		 0.00000031		 0.00053191	
O		-0.00001022		0.00000000		6.95460925		 0.00000377		 0.00000150		 0.00059690	
