# total energy = -4022.5559662 eV

CRYSTAL
PRIMVEC
		3.94517819		0.15780697		0.00000000
		0.15780697		3.94517819		0.00000000
		0.00000000		0.00000000		3.94517819
PRIMECORD
   5 1
Ca		0.00000000		0.00000000		0.00000000		0.00000000		0.00000000		0.00000000
Mg		2.05149298		2.05149298		1.97258910		0.00000000		0.00000000		0.00000000
O		2.05149298		2.05149298		0.00000000		0.00000000		0.00000000		0.00000000
O		1.97258910		0.07890388		1.97258910		0.00000000		0.00000000		0.00000000
O		0.07890388		1.97258910		1.97258910		0.00000000		0.00000000		0.00000000
