# total energy = -4022.63147622 eV

CRYSTAL
PRIMVEC
		3.94517689		-0.31561336		0.00000000
		-0.31561336		3.94517689		0.00000000
		0.00000000		0.00000000		3.94517689
PRIMECORD
   5 1
Ca		0.00000000		0.00000000		0.00000000		0.00000000		0.00000000		0.00000000
Mg		1.81478216		1.81478216		1.97258884		0.00000000		0.00000000		0.00000000
O		1.81478216		1.81478216		0.00000000		0.00000000		0.00000000		0.00000000
O		1.97258884		-0.15780708		1.97258884		0.00000000		0.00000000		0.00000000
O		-0.15780708		1.97258884		1.97258884		0.00000000		0.00000000		0.00000000
