# total energy = -7714.04373263 eV	

CRYSTAL	
PRIMVEC	
		4.44601979		-0.53352130		0.00000000	
		-0.53352130		4.44601979		0.00000000	
		0.00000000		0.00000000		4.44601979	
PRIMCOORD
   8 1	
Ca		0.00000000		0.00000000		0.00000000		0.00000000		0.00000000		0.00000000	
Mg		-0.26676110		2.22300990		2.22300990		0.00000000		0.00000000		0.00000000	
Mg		2.22300990		-0.26676110		2.22300990		0.00000000		0.00000000		0.00000000	
Mg		1.95624790		1.95624790		0.00000000		0.00000000		0.00000000		0.00000000	
O		0.00000000		0.00000000		2.22300990		0.00000000		0.00000000		0.00000000	
O		2.22300990		-0.26676110		0.00000000		0.00000000		0.00000000		0.00000000	
O		-0.26676110		2.22300990		0.00000000		0.00000000		0.00000000		0.00000000	
O		1.95624790		1.95624790		2.22300990		0.00000000		0.00000000		0.00000000	
