# total energy = -7715.63043595 eV	

CRYSTAL	
PRIMVEC	
		4.44601911		0.17784059		0.00000000	
		0.17784059		4.44601911		0.00000000	
		0.00000000		0.00000000		4.44601911	
PRIMCOORD
   8 1	
Ca		0.00000000		0.00000000		0.00000000		0.00000000		0.00000000		0.00000000	
Mg		0.08891985		2.22301000		2.22301000		0.00000000		0.00000000		0.00000000	
Mg		2.22301000		0.08891985		2.22301000		0.00000000		0.00000000		0.00000000	
Mg		2.31192985		2.31192985		0.00000000		0.00000000		0.00000000		0.00000000	
O		0.00000000		0.00000000		2.22301000		0.00000000		0.00000000		0.00000000	
O		2.22301000		0.08891985		0.00000000		0.00000000		0.00000000		0.00000000	
O		0.08891985		2.22301000		0.00000000		0.00000000		0.00000000		0.00000000	
O		2.31192985		2.31192985		2.22301000		0.00000000		0.00000000		0.00000000	
