# total energy = -4138.30238249 eV	

CRYSTAL	
PRIMVEC	
		3.30778802		0.00000000		0.52924756	
		-1.65389233		2.86462849		-0.26462210	
		0.79725972		0.00000000		4.98288161	
PRIMCOORD
   4 1	
Mg		0.00172216		1.90975188		0.01076209		 0.00074065		-0.00089508		 0.00058666	
Mg		2.05424570		0.95487594		2.76682466		 0.00074065		 0.00089508		 0.00058666	
O		0.32084982		1.90975188		2.00531196		-0.00074065		-0.00070015		-0.00058666	
O		2.37337369		0.95487594		4.76137554		-0.00074065		 0.00070015		-0.00058666	
