# total energy = -4138.99212229 eV	

CRYSTAL	
PRIMVEC	
		3.30778590		0.00000000		-0.26462221	
		-1.65389129		2.86462625		0.13230945	
		-0.39863065		0.00000000		4.98288148	
PRIMCOORD
   4 1	
Mg		-0.00086111		1.90975205		0.01076209		-0.00024525		-0.00032709		 0.00059264	
Mg		1.45371684		0.95487586		2.36989073		-0.00024525		 0.00032709		 0.00059264	
O		-0.16042487		1.90975205		2.00531204		 0.00024525		-0.00059678		-0.00059264	
O		1.29415309		0.95487586		4.36444068		 0.00024525		 0.00059678		-0.00059264	
