# total energy = -4138.70150038 eV	

CRYSTAL	
PRIMVEC	
		3.30778721		0.00000000		-0.39693367	
		-1.65389194		2.86462874		0.19846850	
		-0.59794744		0.00000000		4.98288093	
PRIMCOORD
   4 1	
Mg		-0.00129096		1.90975183		0.01076213		-0.00052371		-0.00016151		 0.00040892	
Mg		1.35362892		0.95487591		2.30373477		-0.00052371		 0.00016151		 0.00040892	
O		-0.24063685		1.90975183		2.00531175		 0.00052371		-0.00028243		-0.00040892	
O		1.11428304		0.95487591		4.29828571		 0.00052371		 0.00028243		-0.00040892	
