# total energy = -20636.9749016 eV	

CRYSTAL	
PRIMVEC	
		4.74599854		0.00000000		0.37967893	
		0.00000000		10.17999940		0.00000000	
		0.47807788		0.00000000		5.97600211	
PRIMCOORD
   28 1	
Si		2.14179006		0.95590200		1.65578199		-0.00008774		-0.00039072		-0.00045442	
Si		3.08228875		9.22409788		4.69989811		 0.00008774		 0.00039072		 0.00045442	
Si		4.75382970		4.13409770		4.83362203		-0.00008774		 0.00039072		-0.00045442	
Si		0.47024910		6.04590170		1.52205806		 0.00008774		-0.00039072		 0.00045442	
Mg		0.00000000		0.00000000		0.00000000		-0.00000000		0.00000000		0.00000000	
Mg		2.37299975		5.08999970		0.18983994		0.00000000		-0.00000000		-0.00000000	
Mg		0.23903989		0.00000000		2.98800010		-0.00000000		-0.00000000		0.00000000	
Mg		2.61204012		5.08999970		3.17784005		0.00000000		-0.00000000		0.00000000	
Mg		4.82470390		2.82189599		1.87041473		 0.00057476		-0.00065155		 0.00001021	
Mg		0.39937586		7.35810389		4.48526489		-0.00057476		 0.00065155		-0.00001021	
Mg		2.69074404		2.26810371		4.66857489		 0.00057476		 0.00065155		 0.00001021	
Mg		2.53333476		7.91189569		1.68710472		-0.00057476		-0.00065155		-0.00001021	
O		3.75543004		0.93554184		1.78487282		-0.00034057		 0.00020835		-0.00042856	
O		1.46864876		9.24445756		4.57080679		 0.00034057		-0.00020835		 0.00042856	
O		1.62147019		4.15445786		4.58303298		-0.00034057		-0.00020835		-0.00042856	
O		3.60260909		6.02554201		1.77264711		 0.00034057		 0.00020835		 0.00042856	
O		1.16458900		4.54944203		1.57760512		-0.00005277		 0.00006075		 0.00056937	
O		4.05949076		5.63055785		4.77807402		 0.00005277		-0.00006075		-0.00056937	
O		3.77662912		0.54055815		4.75544469		-0.00005277		-0.00006075		 0.00056937	
O		1.44745112		9.63944173		1.60023397		 0.00005277		 0.00006075		-0.00056937	
O		1.33388405		1.65730413		0.30443780		-0.00005598		 0.00032589		 0.00005124	
O		3.89019571		8.52269575		6.05124182		 0.00005598		-0.00032589		-0.00005124	
O		4.15312379		3.43269605		6.07227568		-0.00081784		-0.00002687		 0.00045712	
O		1.07095597		6.74730383		0.28340393		 0.00081784		 0.00002687		-0.00045712	
O		3.68299609		8.52269575		3.46124303		 0.00081784		-0.00002687		-0.00045712	
O		1.54108414		1.65730413		2.89443611		-0.00081784		 0.00002687		 0.00045712	
O		1.27815607		6.74730383		2.87340177		 0.00005598		 0.00032589		-0.00005124	
O		3.94592369		3.43269605		3.48227784		-0.00005598		-0.00032589		 0.00005124	
