# total energy = -20638.3768536 eV	

CRYSTAL	
PRIMVEC	
		4.74599998		0.00000000		0.18983981	
		0.00000000		10.17999827		0.00000000	
		0.23903819		0.00000000		5.97599741	
PRIMCOORD
   28 1	
Si		2.08202992		0.95590196		1.57489097		 0.00003188		-0.00017636		-0.00023301	
Si		2.90300872		9.22409774		4.59094862		-0.00003188		 0.00017636		 0.00023301	
Si		4.57454995		4.13409765		4.65781101		 0.00003188		 0.00017636		-0.00023301	
Si		0.41048916		6.04590156		1.50802906		-0.00003188		-0.00017636		 0.00023301	
Mg		0.00000000		0.00000000		0.00000000		0.00000000		0.00000000		0.00000000	
Mg		2.37299999		5.08999961		0.09491990		0.00000000		0.00000000		0.00000000	
Mg		0.11952004		0.00000000		2.98799965		0.00000000		0.00000000		0.00000000	
Mg		2.49252003		5.08999961		3.08292003		0.00000000		0.00000000		0.00000000	
Mg		4.76494358		2.82189599		1.68220689		 0.00001322		-0.00012104		-0.00006765	
Mg		0.22009600		7.35810370		4.48363175		-0.00001322		 0.00012104		 0.00006765	
Mg		2.51146411		2.26810409		4.57528664		 0.00001322		 0.00012104		-0.00006765	
Mg		2.47357500		7.91189560		1.59055295		-0.00001322		-0.00012104		 0.00006765	
O		3.69566972		0.93554196		1.63943594		-0.00038888		 0.00015139		-0.00080618	
O		1.28936892		9.24445773		4.52640270		 0.00038888		-0.00015139		 0.00080618	
O		1.44218977		4.15445765		4.53251569		-0.00038888		-0.00015139		-0.00080618	
O		3.54284886		6.02554157		1.63332390		 0.00038888		 0.00015139		 0.00080618	
O		1.10482893		4.54944158		1.53580301		-0.00007723		 0.00027010		 0.00074786	
O		3.88021066		5.63055763		4.63003658		 0.00007723		-0.00027010		-0.00074786	
O		3.59734896		0.54055803		4.61872257		-0.00007723		-0.00027010		 0.00074786	
O		1.38769110		9.63944166		1.54711702		 0.00007723		 0.00027010		-0.00074786	
O		1.32592382		1.65730372		0.25171919		-0.00035069		-0.00041986		 0.00047455	
O		3.65911577		8.52269550		5.91412088		 0.00035069		 0.00041986		-0.00047455	
O		3.92204400		3.43269589		5.92463787		-0.00023222		-0.00062778		 0.00040126	
O		1.06299606		6.74730380		0.24120219		 0.00023222		 0.00062778		-0.00040126	
O		3.55551562		8.52269550		3.32412175		 0.00023222		-0.00062778		-0.00040126	
O		1.42952397		1.65730372		2.84171784		-0.00023222		 0.00062778		 0.00040126	
O		1.16659574		6.74730380		2.83119989		 0.00035069		-0.00041986		-0.00047455	
O		3.81844385		3.43269589		3.33463875		-0.00035069		 0.00041986		 0.00047455	
