# total energy = -20631.8999296 eV	

CRYSTAL	
PRIMVEC	
		4.74600150		0.00000000		-0.75936235	
		0.00000000		10.18000045		0.00000000	
		-0.95615895		0.00000000		5.97599827	
PRIMCOORD
   28 1	
Si		1.78323001		0.95590181		1.17043678		-0.00028232		-0.00034641		-0.00023773	
Si		2.00660869		9.22409768		4.04620298		 0.00028232		 0.00034641		 0.00023773	
Si		3.67815080		4.13409793		3.77875667		-0.00028232		 0.00034641		-0.00023773	
Si		0.11168886		6.04590156		1.43788310		 0.00028232		-0.00034641		 0.00023773	
Mg		0.00000000		0.00000000		0.00000000		0.00000000		0.00000000		0.00000000	
Mg		2.37299979		5.08999975		-0.37968022		0.00000000		0.00000000		0.00000000	
Mg		-0.47807996		0.00000000		2.98799962		0.00000000		0.00000000		0.00000000	
Mg		1.89491983		5.08999975		2.60831988		-0.00000000		0.00000000		-0.00000000	
Mg		4.46614371		2.82189598		0.74116978		-0.00064248		-0.00049456		 0.00013973	
Mg		-0.67630405		7.35810351		4.47546854		 0.00064248		 0.00049456		-0.00013973	
Mg		1.61506396		2.26810376		4.10884962		-0.00064248		 0.00049456		 0.00013973	
Mg		2.17477474		7.91189573		1.10778870		 0.00064248		-0.00049456		-0.00013973	
O		3.39686985		0.93554205		0.91225378		-0.00024625		-0.00028604		 0.00044403	
O		0.39296885		9.24445744		4.30438599		 0.00024625		 0.00028604		-0.00044403	
O		0.54579106		4.15445769		4.27993361		-0.00024625		 0.00028604		 0.00044403	
O		3.24404860		6.02554180		0.93670616		 0.00024625		-0.00028604		-0.00044403	
O		0.80602879		4.54944185		1.32678879		 0.00038496		-0.00004142		-0.00017418	
O		2.98381087		5.63055764		3.88985098		-0.00038496		 0.00004142		 0.00017418	
O		2.70094862		0.54055789		3.93510867		 0.00038496		 0.00004142		-0.00017418	
O		1.08889104		9.63944160		1.28153110		-0.00038496		-0.00004142		 0.00017418	
O		1.28612406		1.65730374		-0.01187316		 0.00025252		-0.00052701		-0.00088537	
O		2.50371608		8.52269575		5.22851293		-0.00025252		 0.00052701		 0.00088537	
O		2.76664394		3.43269601		5.18644474		-0.00034031		 0.00047408		-0.00018063	
O		1.02319573		6.74730348		0.03019502		 0.00034031		-0.00047408		 0.00018063	
O		2.91811604		8.52269575		2.63851491		 0.00034031		 0.00047408		 0.00018063	
O		0.87172411		1.65730374		2.57812486		-0.00034031		-0.00047408		-0.00018063	
O		0.60879577		6.74730348		2.62019304		-0.00025252		-0.00052701		 0.00088537	
O		3.18104389		3.43269601		2.59644576		 0.00025252		 0.00052701		-0.00088537	
