# total energy = -20634.766447 eV	

CRYSTAL	
PRIMVEC	
		4.74600089		0.00000000		-0.56951896	
		0.00000000		10.17999904		0.00000000	
		-0.71712210		0.00000000		5.97599837	
PRIMCOORD
   28 1	
Si		1.84299003		0.95590181		1.25132797		 0.00020968		 0.00031014		-0.00038766	
Si		2.18588924		9.22409819		4.15515192		-0.00020968		-0.00031014		 0.00038766	
Si		3.85743133		4.13409819		3.95456719		 0.00020968		-0.00031014		-0.00038766	
Si		0.17144889		6.04590228		1.45191221		-0.00020968		 0.00031014		 0.00038766	
Mg		0.00000000		0.00000000		0.00000000		0.00000000		-0.00000000		0.00000000	
Mg		2.37299997		5.09000000		-0.28475996		0.00000000		0.00000000		0.00000000	
Mg		-0.35856009		0.00000000		2.98800014		0.00000000		0.00000000		0.00000000	
Mg		2.01443987		5.09000000		2.70324018		0.00000000		-0.00000000		0.00000000	
Mg		4.52590400		2.82189630		0.92937779		-0.00009030		 0.00003693		 0.00015132	
Mg		-0.49702378		7.35810418		4.47710209		 0.00009030		-0.00003693		-0.00015132	
Mg		1.79434394		2.26810418		4.20213789		-0.00009030		-0.00003693		 0.00015132	
Mg		2.23453485		7.91189630		1.20434200		 0.00009030		 0.00003693		-0.00015132	
O		3.45662995		0.93554214		1.05769104		 0.00015080		-0.00000680		-0.00039525	
O		0.57224885		9.24445833		4.34878932		-0.00015080		 0.00000680		 0.00039525	
O		0.72507084		4.15445833		4.33045114		 0.00015080		 0.00000680		-0.00039525	
O		3.30380891		6.02554214		1.07602922		-0.00015080		-0.00000680		 0.00039525	
O		0.86578880		4.54944192		1.36859213		 0.00034553		-0.00015045		 0.00044826	
O		3.16309095		5.63055807		4.03788823		-0.00034553		 0.00015045		-0.00044826	
O		2.88022915		0.54055808		4.07183231		 0.00034553		 0.00015045		 0.00044826	
O		1.14865108		9.63944240		1.33464805		-0.00034553		-0.00015045		-0.00044826	
O		1.29408407		1.65730424		0.04084504		 0.00084835		-0.00051661		 0.00040144	
O		2.73479615		8.52269624		5.36563532		-0.00084835		 0.00051661		-0.00040144	
O		2.99772419		3.43269624		5.33408317		 0.00039985		-0.00012492		 0.00022993	
O		1.03115603		6.74730423		0.07239719		-0.00039985		 0.00012492		-0.00022993	
O		3.04559591		8.52269624		2.77563594		-0.00039985		-0.00012492		-0.00022993	
O		0.98328384		1.65730424		2.63084299		 0.00039985		 0.00012492		 0.00022993	
O		0.72035580		6.74730423		2.66239514		-0.00084835		-0.00051661		-0.00040144	
O		3.30852395		3.43269624		2.74408522		 0.00084835		 0.00051661		 0.00040144	
