# total energy = -10317.0335591 eV	

CRYSTAL	
PRIMVEC	
		4.85549980		0.00000000		0.00000000	
		0.00000000		8.84999809		0.00000000	
		0.00000000		0.00000000		2.74999971	
PRIMCOORD
   14 1	
Si		0.00000000		0.00000000		0.00000000		0.00000000		0.00000000		0.00000000	
Si		2.42774990		4.42500002		0.00000000		0.00000000		0.00000000		0.00000000	
Mg		0.39766495		2.94616481		1.37499985		 0.00022842		-0.00034608		0.00000000	
Mg		4.45783485		5.90383473		1.37499985		-0.00022842		 0.00034608		-0.00000000	
Mg		2.03008495		7.37116483		1.37499985		-0.00022842		-0.00034608		-0.00000000	
Mg		2.82541485		1.47883472		1.37499985		 0.00022842		 0.00034608		0.00000000	
O		1.05073016		0.39648021		1.37499985		-0.00006281		 0.00031096		0.00000000	
O		3.80476964		8.45352080		1.37499985		 0.00006281		-0.00031096		0.00000000	
O		1.37701974		4.82147974		1.37499985		 0.00006281		 0.00031096		0.00000000	
O		3.47848005		4.02851981		1.37499985		-0.00006281		-0.00031096		-0.00000000	
O		1.90578416		2.73199503		0.00000000		 0.00029053		 0.00017109		0.00000000	
O		2.94971564		6.11800597		0.00000000		-0.00029053		-0.00017109		0.00000000	
O		0.52196574		7.15699456		0.00000000		-0.00029053		 0.00017109		-0.00000000	
O		4.33353405		1.69300499		0.00000000		 0.00029053		-0.00017109		-0.00000000	
