# total energy = -10315.8517623 eV	

CRYSTAL	
PRIMVEC	
		4.60649970		0.00000000		0.00000000	
		0.00000000		8.84999801		0.00000000	
		0.00000000		0.00000000		2.75000201	
PRIMCOORD
   14 1	
Si		0.00000000		0.00000000		0.00000000		0.00000000		0.00000000		0.00000000	
Si		2.30324985		4.42499992		0.00000000		0.00000000		0.00000000		0.00000000	
Mg		0.37727186		2.94616473		1.37500008		 0.00060462		-0.00079221		-0.00000000	
Mg		4.22922783		5.90383466		1.37500008		-0.00060462		 0.00079221		0.00000000	
Mg		1.92597798		7.37116465		1.37500008		-0.00060462		-0.00079221		0.00000000	
Mg		2.68052171		1.47883473		1.37500008		 0.00060462		 0.00079221		0.00000000	
O		0.99684700		0.39648005		1.37500008		-0.00008365		 0.00056267		-0.00000000	
O		3.60965270		8.45352026		1.37500008		 0.00008365		-0.00056267		-0.00000000	
O		1.30640285		4.82147951		1.37500008		 0.00008365		 0.00056267		0.00000000	
O		3.30009684		4.02851988		1.37500008		-0.00008365		-0.00056267		0.00000000	
O		1.80805067		2.73199474		0.00000000		 0.00044556		 0.00036015		-0.00000000	
O		2.79844903		6.11800557		0.00000000		-0.00044556		-0.00036015		-0.00000000	
O		0.49519918		7.15699466		0.00000000		-0.00044556		 0.00036015		0.00000000	
O		4.11130052		1.69300472		0.00000000		 0.00044556		-0.00036015		-0.00000000	
