# total energy = -4139.16779982 eV

CRYSTAL
PRIMVEC
		3.30778698		0.00000000		0.13231135
		-1.65389184		2.86462938		-0.06615567
		0.19931449		0.00000000		4.98288214
PRIMECORD
   4 1
Mg		0.00043003		1.90975182		0.01076188		-0.00003464		-0.00013320		 0.00032021
Mg		1.75398109		0.95487591		2.56835796		-0.00003464		 0.00013320		 0.00032021
O		0.08021210		1.90975182		2.00531207		 0.00003464		-0.00025051		-0.00032021
O		1.83376284		0.95487591		4.56290881		 0.00003464		 0.00025051		-0.00032021
