# total energy = -34529.0223606 eV

CRYSTAL
PRIMVEC
		9.34399986		0.00000000		0.00000000
		0.00000000		5.83880388		0.00000000
		-0.48050585		0.00000000		13.28130911
PRIMECORD
   56 1
Si		1.25702494		2.79561730		4.82257662		-0.00031651		-0.00018655		-0.00009825
Si		7.60647094		3.04318284		8.45873342		 0.00031651		 0.00018655		 0.00009825
Si		7.84672293		2.79561730		1.81807887		 0.00031645		-0.00018503		 0.00010241
Si		1.01677295		3.04318284		11.46323210		-0.00031645		 0.00018503		-0.00010241
Si		5.92902487		5.71501831		4.82257662		-0.00031648		-0.00018648		-0.00009848
Si		2.93447101		0.12378277		8.45873342		 0.00031648		 0.00018648		 0.00009848
Si		3.17472300		5.71501831		1.81807887		 0.00031644		-0.00018499		 0.00010256
Si		5.68877288		0.12378277		11.46323210		-0.00031644		 0.00018499		-0.00010256
Mg		4.43174794		2.91940007		6.64065455		0.00000000		0.00000000		0.00000000
Mg		4.67199993		2.91940007		0.00000000		0.00000000		0.00000000		0.00000000
Mg		-0.24025199		0.00000000		6.64065455		0.00000000		0.00000000		0.00000000
Mg		0.00000000		0.00000000		0.00000000		0.00000000		0.00000000		0.00000000
O		0.46208042		1.24775196		4.97119480		 0.00001568		 0.00007525		-0.00046987
O		8.40141453		4.59104912		8.31011617		-0.00001568		-0.00007525		 0.00046987
O		8.64166745		1.24775196		1.66946068		-0.00001546		 0.00007474		 0.00046937
O		0.22182843		4.59104912		11.61184936		 0.00001546		-0.00007474		-0.00046937
O		5.13408034		4.16715203		4.97119480		 0.00001563		 0.00007530		-0.00046990
O		3.72941553		1.67164812		8.31011617		-0.00001563		-0.00007530		 0.00046990
O		3.96966752		4.16715203		1.66946068		-0.00001551		 0.00007474		 0.00046942
O		4.89382835		1.67164812		11.61184936		 0.00001551		-0.00007474		-0.00046942
O		2.66276525		2.68117666		5.63791629		 0.00008015		-0.00024607		-0.00067830
O		6.20072970		3.15762254		7.64339375		-0.00008015		 0.00024607		 0.00067830
O		6.44098262		2.68117666		1.00273920		-0.00008096		-0.00024617		 0.00067758
O		2.42251326		3.15762254		12.27857178		 0.00008096		 0.00024617		-0.00067758
O		7.33476517		5.60057673		5.63791629		 0.00008020		-0.00024608		-0.00067822
O		1.52873070		0.23822341		7.64339375		-0.00008020		 0.00024608		 0.00067822
O		1.76898269		5.60057673		1.00273920		-0.00008094		-0.00024620		 0.00067752
O		7.09451318		0.23822341		12.27857178		 0.00008094		 0.00024620		-0.00067752
O		0.40556510		4.02526899		5.65518213		 0.00004270		 0.00008044		-0.00017534
O		8.45793078		1.81353115		7.62612884		-0.00004270		-0.00008044		 0.00017534
O		8.69818277		4.02526899		0.98547335		-0.00004250		 0.00008083		 0.00017471
O		0.16531218		1.81353115		12.29583669		 0.00004250		-0.00008083		-0.00017471
O		5.07756409		1.10586892		5.65518213		 0.00004269		 0.00008039		-0.00017537
O		3.78593085		4.73293122		7.62612884		-0.00004269		-0.00008039		 0.00017537
O		4.02618284		1.10586892		0.98547335		-0.00004246		 0.00008084		 0.00017479
O		4.83731210		4.73293122		12.29583669		 0.00004246		-0.00008084		-0.00017479
O		1.45510185		3.42328928		3.35087515		-0.00001062		 0.00016746		 0.00018762
O		7.40839402		2.41551180		9.93043583		 0.00001062		-0.00016746		-0.00018762
O		7.64864601		3.42328928		3.28978127		 0.00001094		 0.00016647		-0.00019092
O		1.21484893		2.41551180		9.99152970		-0.00001094		-0.00016647		 0.00019092
O		6.12710085		0.50388921		3.35087515		-0.00001068		 0.00016734		 0.00018775
O		2.73639410		5.33491187		9.93043583		 0.00001068		-0.00016734		-0.00018775
O		2.97664609		0.50388921		3.28978127		 0.00001102		 0.00016642		-0.00019099
O		5.88684886		5.33491187		9.99152970		-0.00001102		-0.00016642		 0.00019099
Ca		1.59139157		2.80262437		1.18761491		 0.00005793		-0.00007208		 0.00024923
Ca		7.27210244		3.03617577		12.09369607		-0.00005793		 0.00007208		-0.00024923
Ca		7.51235443		2.80262437		5.45304058		-0.00005794		-0.00007195		-0.00024864
Ca		1.35113958		3.03617577		7.82826946		 0.00005794		 0.00007195		 0.00024864
Ca		6.26339149		5.72202350		1.18761491		 0.00005784		-0.00007206		 0.00024925
Ca		2.60010251		0.11677570		12.09369607		-0.00005784		 0.00007206		-0.00024925
Ca		2.84035450		5.72202350		5.45304058		-0.00005794		-0.00007201		-0.00024860
Ca		6.02313950		0.11677570		7.82826946		 0.00005794		 0.00007201		 0.00024860
Ca		-0.12012646		5.42482918		3.32032774		 0.00000001		-0.00070355		 0.00000042
Ca		-0.36037845		0.41397096		9.96098323		-0.00000001		 0.00070355		-0.00000042
Ca		4.55187347		2.50542911		3.32032774		-0.00000001		-0.00070355		 0.00000042
Ca		4.31162148		3.33337103		9.96098323		 0.00000001		 0.00070355		-0.00000042
