# total energy = -34526.7099048 eV

CRYSTAL
PRIMVEC
		9.34399986		0.00000000		0.00000000
		0.00000000		4.77720402		0.00000000
		-0.48050585		0.00000000		13.28130911
PRIMECORD
   56 1
Si		1.25702494		2.28732333		4.82257662		 0.00038816		-0.00041477		 0.00005861
Si		7.60647094		2.48987695		8.45873342		-0.00038816		 0.00041477		-0.00005861
Si		7.84672293		2.28732333		1.81807887		-0.00015584		-0.00059287		-0.00036538
Si		1.01677295		2.48987695		11.46323210		 0.00015584		 0.00059287		 0.00036538
Si		5.92902487		4.67592254		4.82257662		 0.00018852		-0.00051725		 0.00033885
Si		2.93447101		0.10127681		8.45873342		-0.00018852		 0.00051725		-0.00033885
Si		3.17472300		4.67592254		1.81807887		-0.00038190		-0.00037944		 0.00008215
Si		5.68877288		0.10127681		11.46323210		 0.00038190		 0.00037944		-0.00008215
Mg		4.43174794		2.38860014		6.64065455		0.00000000		0.00000000		0.00000000
Mg		4.67199993		2.38860014		0.00000000		0.00000000		0.00000000		0.00000000
Mg		-0.24025199		0.00000000		6.64065455		0.00000000		0.00000000		0.00000000
Mg		0.00000000		0.00000000		0.00000000		0.00000000		0.00000000		0.00000000
O		0.46208042		1.02088805		4.97119480		-0.00054884		-0.00081424		-0.00020873
O		8.40141453		3.75631224		8.31011617		 0.00054884		 0.00081424		 0.00020873
O		8.64166745		1.02088805		1.66946068		 0.00044779		-0.00063236		 0.00026144
O		0.22182843		3.75631224		11.61184936		-0.00044779		 0.00063236		-0.00026144
O		5.13408034		3.40948819		4.97119480		-0.00047068		-0.00069592		-0.00025703
O		3.72941553		1.36771209		8.31011617		 0.00047068		 0.00069592		 0.00025703
O		3.96966752		3.40948819		1.66946068		 0.00055173		-0.00083081		 0.00019385
O		4.89382835		1.36771209		11.61184936		-0.00055173		 0.00083081		-0.00019385
O		2.66276525		2.19368991		5.63791629		 0.00007698		 0.00020755		-0.00043656
O		6.20072970		2.58351037		7.64339375		-0.00007698		-0.00020755		 0.00043656
O		6.44098262		2.19368991		1.00273920		-0.00015914		 0.00021139		 0.00041870
O		2.42251326		2.58351037		12.27857178		 0.00015914		-0.00021139		-0.00041870
O		7.33476517		4.58229005		5.63791629		 0.00014150		 0.00020890		-0.00043350
O		1.52873070		0.19491023		7.64339375		-0.00014150		-0.00020890		 0.00043350
O		1.76898269		4.58229005		1.00273920		-0.00010229		 0.00020602		 0.00041715
O		7.09451318		0.19491023		12.27857178		 0.00010229		-0.00020602		-0.00041715
O		0.40556510		3.29340207		5.65518213		 0.00055794		-0.00014900		 0.00067881
O		8.45793078		1.48379821		7.62612884		-0.00055794		 0.00014900		-0.00067881
O		8.69818277		3.29340207		0.98547335		-0.00064648		-0.00023699		-0.00060415
O		0.16531218		1.48379821		12.29583669		 0.00064648		 0.00023699		 0.00060415
O		5.07756409		0.90480193		5.65518213		 0.00064910		-0.00023191		 0.00060073
O		3.78593085		3.87239835		7.62612884		-0.00064910		 0.00023191		-0.00060073
O		4.02618284		0.90480193		0.98547335		-0.00054280		-0.00013347		-0.00070072
O		4.83731210		3.87239835		12.29583669		 0.00054280		 0.00013347		 0.00070072
O		1.45510185		2.80087237		3.35087515		-0.00089530		 0.00017699		 0.00029813
O		7.40839402		1.97632792		9.93043583		 0.00089530		-0.00017699		-0.00029813
O		7.64864601		2.80087237		3.28978127		 0.00086790		 0.00023309		-0.00008344
O		1.21484893		1.97632792		9.99152970		-0.00086790		-0.00023309		 0.00008344
O		6.12710085		0.41227222		3.35087515		-0.00086718		 0.00022286		 0.00010728
O		2.73639410		4.36492806		9.93043583		 0.00086718		-0.00022286		-0.00010728
O		2.97664609		0.41227222		3.28978127		 0.00089802		 0.00015084		-0.00039969
O		5.88684886		4.36492806		9.99152970		-0.00089802		-0.00015084		 0.00039969
Ca		1.59139157		2.29305588		1.18761491		-0.00041981		-0.00043695		 0.00013603
Ca		7.27210244		2.48414441		12.09369607		 0.00041981		 0.00043695		-0.00013603
Ca		7.51235443		2.29305588		5.45304058		 0.00038009		-0.00043054		-0.00013601
Ca		1.35113958		2.48414441		7.82826946		-0.00038009		 0.00043054		 0.00013601
Ca		6.26339149		4.68165602		1.18761491		-0.00037591		-0.00042668		 0.00014812
Ca		2.60010251		0.09554427		12.09369607		 0.00037591		 0.00042668		-0.00014812
Ca		2.84035450		4.68165602		5.45304058		 0.00041440		-0.00043550		-0.00013096
Ca		6.02313950		0.09554427		7.82826946		-0.00041440		 0.00043550		 0.00013096
Ca		-0.12012646		4.43849617		3.32032774		 0.00002015		-0.00026417		-0.00000767
Ca		-0.36037845		0.33870318		9.96098323		-0.00002015		 0.00026417		 0.00000767
Ca		4.55187347		2.04989697		3.32032774		-0.00001960		-0.00027021		 0.00002082
Ca		4.31162148		2.72730425		9.96098323		 0.00001960		 0.00027021		-0.00002082
