# total energy = -34529.187811 eV

CRYSTAL
PRIMVEC
		9.34399986		0.00000000		0.00000000
		0.00000000		4.90989816		0.00000000
		-0.48050585		0.00000000		13.28130911
PRIMECORD
   56 1
Si		1.25702494		2.35085973		4.82257662		 0.00018092		-0.00032827		-0.00048978
Si		7.60647094		2.55904031		8.45873342		-0.00018092		 0.00032827		 0.00048978
Si		7.84672293		2.35085973		1.81807887		-0.00016821		-0.00035306		 0.00045933
Si		1.01677295		2.55904031		11.46323210		 0.00016821		 0.00035306		-0.00045933
Si		5.92902487		4.80580974		4.82257662		 0.00013253		-0.00038363		-0.00042561
Si		2.93447101		0.10409029		8.45873342		-0.00013253		 0.00038363		 0.00042561
Si		3.17472300		4.80580974		1.81807887		-0.00013546		-0.00039689		 0.00041870
Si		5.68877288		0.10409029		11.46323210		 0.00013546		 0.00039689		-0.00041870
Mg		4.43174794		2.45495002		6.64065455		0.00000000		0.00000000		0.00000000
Mg		4.67199993		2.45495002		0.00000000		0.00000000		0.00000000		0.00000000
Mg		-0.24025199		0.00000000		6.64065455		0.00000000		0.00000000		0.00000000
Mg		0.00000000		0.00000000		0.00000000		0.00000000		0.00000000		0.00000000
O		0.46208042		1.04924615		4.97119480		-0.00013558		-0.00087897		-0.00034178
O		8.40141453		3.86065388		8.31011617		 0.00013558		 0.00087897		 0.00034178
O		8.64166745		1.04924615		1.66946068		 0.00012715		-0.00086065		 0.00034782
O		0.22182843		3.86065388		11.61184936		-0.00012715		 0.00086065		-0.00034782
O		5.13408034		3.50419617		4.97119480		-0.00011435		-0.00083220		-0.00035204
O		3.72941553		1.40570386		8.31011617		 0.00011435		 0.00083220		 0.00035204
O		3.96966752		3.50419617		1.66946068		 0.00011246		-0.00082482		 0.00035442
O		4.89382835		1.40570386		11.61184936		-0.00011246		 0.00082482		-0.00035442
O		2.66276525		2.25462587		5.63791629		-0.00001103		-0.00027132		-0.00080759
O		6.20072970		2.65527416		7.64339375		 0.00001103		 0.00027132		 0.00080759
O		6.44098262		2.25462587		1.00273920		 0.00000995		-0.00027084		 0.00080951
O		2.42251326		2.65527416		12.27857178		-0.00000995		 0.00027084		-0.00080951
O		7.33476517		4.70957589		5.63791629		 0.00000908		-0.00026854		-0.00080055
O		1.52873070		0.20032414		7.64339375		-0.00000908		 0.00026854		 0.00080055
O		1.76898269		4.70957589		1.00273920		-0.00000523		-0.00026827		 0.00080293
O		7.09451318		0.20032414		12.27857178		 0.00000523		 0.00026827		-0.00080293
O		0.40556510		3.38488450		5.65518213		 0.00078848		-0.00019627		 0.00022613
O		8.45793078		1.52501459		7.62612884		-0.00078848		 0.00019627		-0.00022613
O		8.69818277		3.38488450		0.98547335		-0.00079158		-0.00019881		-0.00022260
O		0.16531218		1.52501459		12.29583669		 0.00079158		 0.00019881		 0.00022260
O		5.07756409		0.92993542		5.65518213		 0.00080194		-0.00021203		 0.00021295
O		3.78593085		3.97996461		7.62612884		-0.00080194		 0.00021203		-0.00021295
O		4.02618284		0.92993542		0.98547335		-0.00079851		-0.00020894		-0.00021504
O		4.83731210		3.97996461		12.29583669		 0.00079851		 0.00020894		 0.00021504
O		1.45510185		2.87867425		3.35087515		 0.00022685		-0.00012683		-0.00050405
O		7.40839402		2.03122579		9.93043583		-0.00022685		 0.00012683		 0.00050405
O		7.64864601		2.87867425		3.28978127		-0.00022879		-0.00012028		 0.00052716
O		1.21484893		2.03122579		9.99152970		 0.00022879		 0.00012028		-0.00052716
O		6.12710085		0.42372423		3.35087515		 0.00023344		-0.00011183		-0.00055373
O		2.73639410		4.48617580		9.93043583		-0.00023344		 0.00011183		 0.00055373
O		2.97664609		0.42372423		3.28978127		-0.00023267		-0.00010989		 0.00055982
O		5.88684886		4.48617580		9.99152970		 0.00023267		 0.00010989		-0.00055982
Ca		1.59139157		2.35675205		1.18761491		 0.00031126		-0.00005535		 0.00032613
Ca		7.27210244		2.55314798		12.09369607		-0.00031126		 0.00005535		-0.00032613
Ca		7.51235443		2.35675205		5.45304058		-0.00031270		-0.00005575		-0.00032911
Ca		1.35113958		2.55314798		7.82826946		 0.00031270		 0.00005575		 0.00032911
Ca		6.26339149		4.81170207		1.18761491		 0.00030447		-0.00005762		 0.00032414
Ca		2.60010251		0.09819796		12.09369607		-0.00030447		 0.00005762		-0.00032414
Ca		2.84035450		4.81170207		5.45304058		-0.00030346		-0.00005853		-0.00032710
Ca		6.02313950		0.09819796		7.82826946		 0.00030346		 0.00005853		 0.00032710
Ca		-0.12012646		4.56178838		3.32032774		 0.00000074		 0.00063964		-0.00000247
Ca		-0.36037845		0.34811165		9.96098323		-0.00000074		-0.00063964		 0.00000247
Ca		4.55187347		2.10683837		3.32032774		-0.00000074		 0.00064446		-0.00000163
Ca		4.31162148		2.80306167		9.96098323		 0.00000074		-0.00064446		 0.00000163
