# total energy = -20633.0545932 eV	

CRYSTAL	
PRIMVEC	
		10.05000123		-1.20599772		0.00000000	
		-0.69000338		5.75000116		0.00000000	
		0.00000000		0.00000000		4.86999582	
PRIMCOORD
   28 1	
Si		3.34664999		-0.40159840		4.37666891		 0.00002334		-0.00002508		-0.00002765	
Si		6.70335022		-0.80440235		0.49333096		-0.00002334		 0.00002508		 0.00002765	
Si		8.02664993		1.87040230		4.37666891		 0.00002881		-0.00004951		-0.00004312	
Si		1.33334994		2.67359810		0.49333096		-0.00002881		 0.00004951		 0.00004312	
Mg		0.00000000		0.00000000		0.00000000		0.00000000		0.00000000		0.00000000	
Mg		4.67999994		2.27199969		0.00000000		0.00000000		0.00000000		0.00000000	
Mg		5.02499960		-0.60299987		2.43499993		0.00000000		0.00000000		0.00000000	
Mg		-0.34499966		2.87499957		2.43499993		0.00000000		0.00000000		0.00000000	
Mg		2.33999997		1.13600035		2.43499993		 0.00000195		 0.00001117		-0.00000372	
Mg		7.01999991		3.40800005		2.43499993		-0.00000195		-0.00001117		 0.00000372	
Mg		7.36499957		0.53300048		2.43499993		 0.00000874		-0.00001595		 0.00000134	
Mg		1.99500030		4.01099992		2.43499993		-0.00000874		 0.00001595		-0.00000134	
O		8.23496985		-0.98819642		1.08113958		-0.00008014		-0.00000850		 0.00028423	
O		1.81503036		-0.21780433		3.78886029		 0.00008014		 0.00000850		-0.00028423	
O		2.86496958		2.48980403		1.08113958		-0.00009195		 0.00002163		 0.00028901	
O		6.49502929		2.05419637		3.78886029		 0.00009195		-0.00002163		-0.00028901	
O		3.35770535		-0.40292541		1.14591090		-0.00045038		 0.00020631		 0.00008086	
O		6.69229486		-0.80307534		3.72408897		 0.00045038		-0.00020631		-0.00008086	
O		8.03770428		1.86907529		1.14591090		-0.00044379		 0.00016803		 0.00008679	
O		1.32229458		2.67492511		3.72408897		 0.00044379		-0.00016803		-0.00008679	
O		0.72603300		1.44472038		1.09721145		 0.00033221		 0.00023640		-0.00007984	
O		8.63396688		3.09928002		3.77278842		-0.00033221		-0.00023640		 0.00007984	
O		8.95095262		0.45772950		3.77278842		 0.00000646		-0.00012962		-0.00006110	
O		0.40904726		4.08626989		1.09721145		-0.00000646		 0.00012962		 0.00006110	
O		5.40603293		3.71672008		1.09721145		 0.00033632		 0.00021568		-0.00007797	
O		3.95396694		0.82728032		3.77278842		-0.00033632		-0.00021568		 0.00007797	
O		3.58095335		3.93572995		3.77278842		-0.00000216		-0.00010697		-0.00005876	
O		5.77904652		0.60827045		1.09721145		 0.00000216		 0.00010697		 0.00005876	
