# total energy = -20636.2482427 eV	

CRYSTAL	
PRIMVEC	
		10.05000027		0.40199961		0.00000000	
		0.22999712		5.74999850		0.00000000	
		0.00000000		0.00000000		4.87000076	
PRIMCOORD
   28 1	
Si		3.34664976		0.13386643		4.37666915		-0.00010061		-0.00071105		-0.00029913	
Si		6.70334951		0.26813418		0.49333060		 0.00010061		 0.00071105		 0.00029913	
Si		8.48664946		3.20986549		4.37666915		-0.00009189		-0.00069933		-0.00030349	
Si		1.79334995		2.94213363		0.49333060		 0.00009189		 0.00069933		 0.00030349	
Mg		0.00000000		0.00000000		0.00000000		0.00000000		0.00000000		0.00000000	
Mg		5.13999970		3.07600006		0.00000000		0.00000000		0.00000000		0.00000000	
Mg		5.02500014		0.20099980		2.43500038		0.00000000		0.00000000		0.00000000	
Mg		0.11499957		2.87500026		2.43500038		0.00000000		0.00000000		0.00000000	
Mg		2.57000035		1.53799953		2.43500038		-0.00000671		-0.00000927		 0.00000669	
Mg		7.71000006		4.61399959		2.43500038		 0.00000671		 0.00000927		-0.00000669	
Mg		7.59499949		1.73900034		2.43500038		 0.00000765		 0.00000814		-0.00000778	
Mg		2.68499992		4.41299979		2.43500038		-0.00000765		-0.00000814		 0.00000778	
O		8.23497023		0.32939869		1.08114037		 0.00007235		-0.00040617		-0.00010132	
O		1.81503004		0.07260092		3.78886039		-0.00007235		 0.00040617		 0.00010132	
O		3.32496966		3.00339914		1.08114037		 0.00006264		-0.00041782		-0.00009478	
O		6.95502975		3.14860098		3.78886039		-0.00006264		 0.00041782		 0.00009478	
O		3.35770455		0.13430798		1.14591111		 0.00004869		 0.00060076		-0.00007136	
O		6.69229472		0.26769163		3.72408865		-0.00004869		-0.00060076		 0.00007136	
O		8.49770526		3.21030804		1.14591111		 0.00005714		 0.00060716		-0.00007902	
O		1.78229516		2.94169208		3.72408865		-0.00005714		-0.00060716		 0.00007902	
O		0.97470924		1.59072677		1.09721110		 0.00045343		 0.00045401		-0.00017905	
O		9.30529117		4.56127335		3.77278866		-0.00045343		-0.00045401		 0.00017905	
O		9.19962848		1.91972314		3.77278866		 0.00021400		-0.00015033		-0.00002103	
O		1.08037093		4.23227598		1.09721110		-0.00021400		 0.00015033		 0.00002103	
O		6.11470895		4.66672684		1.09721110		 0.00046578		 0.00046534		-0.00018359	
O		4.16529046		1.48527329		3.77278866		-0.00046578		-0.00046534		 0.00018359	
O		4.28962891		4.59372359		3.77278866		 0.00019728		-0.00016435		-0.00001907	
O		5.99037049		1.55827653		1.09721110		-0.00019728		 0.00016435		 0.00001907	
