# total energy = -20636.2482427 eV	

CRYSTAL	
PRIMVEC	
		10.05000027		-0.40199961		0.00000000	
		-0.22999712		5.74999850		0.00000000	
		0.00000000		0.00000000		4.87000076	
PRIMCOORD
   28 1	
Si		3.34664976		-0.13386643		4.37666915		-0.00010081		 0.00071107		-0.00029977	
Si		6.70334951		-0.26813418		0.49333060		 0.00010081		-0.00071107		 0.00029977	
Si		8.25665033		2.54013402		4.37666915		-0.00009174		 0.00069929		-0.00030287	
Si		1.56334980		2.80786588		0.49333060		 0.00009174		-0.00069929		 0.00030287	
Mg		0.00000000		0.00000000		0.00000000		0.00000000		0.00000000		0.00000000	
Mg		4.90999956		2.67400045		0.00000000		0.00000000		0.00000000		0.00000000	
Mg		5.02500014		-0.20099980		2.43500038		0.00000000		0.00000000		0.00000000	
Mg		-0.11499957		2.87500026		2.43500038		0.00000000		0.00000000		0.00000000	
Mg		2.45499978		1.33699972		2.43500038		-0.00000763		 0.00000812		 0.00000782	
Mg		7.36500035		4.01100018		2.43500038		 0.00000763		-0.00000812		-0.00000782	
Mg		7.47999992		1.13599992		2.43500038		 0.00000663		-0.00000936		-0.00000683	
Mg		2.34000021		4.21199998		2.43500038		-0.00000663		 0.00000936		 0.00000683	
O		8.23497023		-0.32939869		1.08114037		 0.00007209		 0.00040616		-0.00010149	
O		1.81503004		-0.07260092		3.78886039		-0.00007209		-0.00040616		 0.00010149	
O		3.09496952		2.74660137		1.08114037		 0.00006285		 0.00041771		-0.00009469	
O		6.72502961		2.60139853		3.78886039		-0.00006285		-0.00041771		 0.00009469	
O		3.35770455		-0.13430798		1.14591111		 0.00004867		-0.00060074		-0.00007106	
O		6.69229472		-0.26769163		3.72408865		-0.00004867		 0.00060074		 0.00007106	
O		8.26770512		2.53969147		1.14591111		 0.00005712		-0.00060718		-0.00007940	
O		1.55229502		2.80830843		3.72408865		-0.00005712		 0.00060718		 0.00007940	
O		0.85037079		1.51772253		1.09721110		-0.00021394		-0.00015029		 0.00002105	
O		8.96962934		3.83027637		3.77278866		 0.00021394		 0.00015029		-0.00002105	
O		9.07529103		1.18872717		3.77278866		-0.00045337		 0.00045408		 0.00017902	
O		0.74470910		4.15927274		1.09721110		 0.00045337		-0.00045408		-0.00017902	
O		5.76037136		4.19172399		1.09721110		-0.00019729		-0.00016436		 0.00001899	
O		4.05962877		1.15627692		3.77278866		 0.00019729		 0.00016436		-0.00001899	
O		3.93529132		4.26472723		3.77278866		-0.00046578		 0.00046536		 0.00018364	
O		5.88470881		1.08327267		1.09721110		 0.00046578		-0.00046536		-0.00018364	
