# total energy = -10312.8104179 eV	

CRYSTAL	
PRIMVEC	
		3.51000009		0.00000000		0.00000000	
		0.00000000		3.51000009		0.00000000	
		0.00000000		0.00000000		9.66624891	
PRIMCOORD
   14 1	
Si		0.00000000		0.00000000		0.00000000		0.00000000		0.00000000		0.00000000	
Si		1.75500004		1.75500004		4.83312516		0.00000000		0.00000000		0.00000000	
Mg		0.00000000		0.00000000		3.61517794		0.00000000		0.00000000		-0.00005336	
Mg		0.00000000		0.00000000		6.05107202		0.00000000		0.00000000		 0.00005336	
Mg		1.75500004		1.75500004		8.44830205		0.00000000		0.00000000		 0.00006308	
Mg		1.75500004		1.75500004		1.21794686		0.00000000		0.00000000		-0.00006308	
O		0.00000000		1.75500004		0.00000000		0.00000000		0.00000000		0.00000000	
O		1.75500004		0.00000000		0.00000000		0.00000000		0.00000000		0.00000000	
O		1.75500004		0.00000000		4.83312516		0.00000000		0.00000000		0.00000000	
O		0.00000000		1.75500004		4.83312516		0.00000000		0.00000000		0.00000000	
O		0.00000000		0.00000000		1.59203109		0.00000000		0.00000000		 0.00014804	
O		0.00000000		0.00000000		8.07421817		0.00000000		0.00000000		-0.00014804	
O		1.75500004		1.75500004		6.42515730		0.00000000		0.00000000		 0.00004991	
O		1.75500004		1.75500004		3.24109407		0.00000000		0.00000000		-0.00004991	
