# total energy = -10313.4742385 eV	

CRYSTAL	
PRIMVEC	
		3.51000009		0.00000000		0.00000000	
		0.00000000		3.51000009		0.00000000	
		0.00000000		0.00000000		11.49500108	
PRIMCOORD
   14 1	
Si		0.00000000		0.00000000		0.00000000		0.00000000		0.00000000		0.00000000	
Si		1.75500004		1.75500004		5.74750019		0.00000000		0.00000000		0.00000000	
Mg		0.00000000		0.00000000		4.29913024		0.00000000		0.00000000		 0.00004707	
Mg		0.00000000		0.00000000		7.19587013		0.00000000		0.00000000		-0.00004707	
Mg		1.75500004		1.75500004		10.04663008		0.00000000		0.00000000		-0.00007590	
Mg		1.75500004		1.75500004		1.44836995		0.00000000		0.00000000		 0.00007590	
O		0.00000000		1.75500004		0.00000000		0.00000000		0.00000000		0.00000000	
O		1.75500004		0.00000000		0.00000000		0.00000000		0.00000000		0.00000000	
O		1.75500004		0.00000000		5.74750019		0.00000000		0.00000000		0.00000000	
O		0.00000000		1.75500004		5.74750019		0.00000000		0.00000000		0.00000000	
O		0.00000000		0.00000000		1.89322595		0.00000000		0.00000000		 0.00004289	
O		0.00000000		0.00000000		9.60177337		0.00000000		0.00000000		-0.00004289	
O		1.75500004		1.75500004		7.64072719		0.00000000		0.00000000		-0.00004205	
O		1.75500004		1.75500004		3.85427318		0.00000000		0.00000000		 0.00004205	
