# total energy = -10313.9739824 eV	

CRYSTAL	
PRIMVEC	
		3.51000009		0.00000000		0.00000000	
		0.00000000		3.51000009		0.00000000	
		0.00000000		0.00000000		10.18875103	
PRIMCOORD
   14 1	
Si		0.00000000		0.00000000		0.00000000		0.00000000		0.00000000		0.00000000	
Si		1.75500004		1.75500004		5.09437517		0.00000000		0.00000000		0.00000000	
Mg		0.00000000		0.00000000		3.81059299		0.00000000		0.00000000		-0.00012240	
Mg		0.00000000		0.00000000		6.37815700		0.00000000		0.00000000		 0.00012240	
Mg		1.75500004		1.75500004		8.90496710		0.00000000		0.00000000		 0.00016515	
Mg		1.75500004		1.75500004		1.28378218		0.00000000		0.00000000		-0.00016515	
O		0.00000000		1.75500004		0.00000000		0.00000000		0.00000000		0.00000000	
O		1.75500004		0.00000000		0.00000000		0.00000000		0.00000000		0.00000000	
O		1.75500004		0.00000000		5.09437517		0.00000000		0.00000000		0.00000000	
O		0.00000000		1.75500004		5.09437517		0.00000000		0.00000000		0.00000000	
O		0.00000000		0.00000000		1.67808717		0.00000000		0.00000000		-0.00006334	
O		0.00000000		0.00000000		8.51066211		0.00000000		0.00000000		 0.00006334	
O		1.75500004		1.75500004		6.77246233		0.00000000		0.00000000		 0.00009015	
O		1.75500004		1.75500004		3.41628800		0.00000000		0.00000000		-0.00009015	
