# total energy = -10314.0797999 eV	

CRYSTAL	
PRIMVEC	
		3.51000009		0.00000000		0.00000000	
		0.00000000		3.51000009		0.00000000	
		0.00000000		0.00000000		10.97249895	
PRIMCOORD
   14 1	
Si		0.00000000		0.00000000		0.00000000		0.00000000		0.00000000		0.00000000	
Si		1.75500004		1.75500004		5.48625018		0.00000000		0.00000000		0.00000000	
Mg		0.00000000		0.00000000		4.10371520		0.00000000		0.00000000		-0.00000728	
Mg		0.00000000		0.00000000		6.86878516		0.00000000		0.00000000		 0.00000728	
Mg		1.75500004		1.75500004		9.58996538		0.00000000		0.00000000		 0.00008147	
Mg		1.75500004		1.75500004		1.38253498		0.00000000		0.00000000		-0.00008147	
O		0.00000000		1.75500004		0.00000000		0.00000000		0.00000000		0.00000000	
O		1.75500004		0.00000000		0.00000000		0.00000000		0.00000000		0.00000000	
O		1.75500004		0.00000000		5.48625018		0.00000000		0.00000000		0.00000000	
O		0.00000000		1.75500004		5.48625018		0.00000000		0.00000000		0.00000000	
O		0.00000000		0.00000000		1.80717093		0.00000000		0.00000000		 0.00001261	
O		0.00000000		0.00000000		9.16532908		0.00000000		0.00000000		-0.00001261	
O		1.75500004		1.75500004		7.29342111		0.00000000		0.00000000		 0.00001543	
O		1.75500004		1.75500004		3.67907925		0.00000000		0.00000000		-0.00001543	
