# total energy = -7658.11626002 eV

CRYSTAL
PRIMVEC
		5.95625187		0.00000000		0.00000000
		-2.97812594		4.79838629		0.00000000
		0.00000000		0.00000000		4.84349894
PRIMECORD
   15 1
Mg		0.00000000		0.00000000		0.00000000		0.00000000		0.00000000		0.00000000
Mg		0.00000000		3.19892479		0.05279383		-0.00019058		 0.00020875		 0.00003841
Mg		2.97812594		1.59946210		4.79070570		 0.00019058		-0.00020875		-0.00003841
O		0.98158971		1.60553986		1.06556989		 0.00005287		 0.00000376		-0.00078551
O		1.99653622		3.19284703		3.77792965		-0.00005287		-0.00000376		 0.00078551
O		0.99260997		4.78639099		1.06556989		-0.00016962		-0.00006682		-0.00056821
O		1.98551716		0.01199589		3.77792965		 0.00016962		 0.00006682		 0.00056821
O		-1.97419968		3.20484173		1.06556989		-0.00037248		 0.00003661		-0.00038222
O		4.95232562		1.59354396		3.77792965		 0.00037248		-0.00003661		 0.00038222
H		0.84489373		1.67607677		2.04395692		-0.00011965		-0.00006286		 0.00044639
H		2.13323220		3.12231012		2.79954321		 0.00011965		 0.00006286		-0.00044639
H		0.99528969		4.64100008		2.04395692		 0.00006751		 0.00015747		 0.00046757
H		1.98283625		0.15738681		2.79954321		-0.00006751		-0.00015747		-0.00046757
H		-1.84018402		3.27969692		2.04395692		 0.00033684		-0.00012450		 0.00082238
H		4.81831114		1.51868877		2.79954321		-0.00033684		 0.00012450		-0.00082238
