# total energy = -7657.88378901 eV

CRYSTAL
PRIMVEC
		6.09476983		0.00000000		0.00000000
		-3.04738491		4.79838790		0.00000000
		0.00000000		0.00000000		4.84350139
PRIMECORD
   15 1
Mg		0.00000000		0.00000000		0.00000000		0.00000000		0.00000000		0.00000000
Mg		0.00000000		3.19892466		0.05279412		-0.00013288		 0.00041357		-0.00005312
Mg		3.04738491		1.59946203		4.79070606		 0.00013288		-0.00041357		 0.00005312
O		1.00441807		1.60553973		1.06556994		-0.00014455		-0.00007472		-0.00060845
O		2.04296685		3.19284696		3.77792962		 0.00014455		 0.00007472		 0.00060845
O		1.01569400		4.78639096		1.06556994		-0.00022912		-0.00002963		-0.00034751
O		2.03169213		0.01199573		3.77792962		 0.00022912		 0.00002963		 0.00034751
O		-2.02011085		3.20484207		1.06556994		-0.00057305		 0.00005128		-0.00029950
O		5.06749576		1.59354400		3.77792962		 0.00057305		-0.00005128		 0.00029950
H		0.86454310		1.67607694		2.04395725		-0.00000873		-0.00016374		 0.00041860
H		2.18284181		3.12230975		2.79954293		 0.00000873		 0.00016374		-0.00041860
H		1.01843604		4.64099962		2.04395725		 0.00024253		 0.00029746		 0.00032551
H		2.02894887		0.15738707		2.79954293		-0.00024253		-0.00029746		-0.00032551
H		-1.88297914		3.27969682		2.04395725		 0.00055457		-0.00014249		 0.00061642
H		4.93036405		1.51868926		2.79954293		-0.00055457		 0.00014249		-0.00061642
