# total energy = -7658.4800164 eV

CRYSTAL
PRIMVEC
		5.26366475		0.00000000		0.00000000
		-2.63183238		4.79838837		0.00000000
		0.00000000		0.00000000		4.84349798
PRIMECORD
   15 1
Mg		0.00000000		0.00000000		0.00000000		0.00000000		0.00000000		0.00000000
Mg		0.00000000		3.19892488		0.05279403		 0.00090778		-0.00000195		 0.00025190
Mg		2.63183185		1.59946191		4.79070553		-0.00090778		 0.00000195		-0.00025190
O		0.86745195		1.60553987		1.06556998		 0.00007114		 0.00013056		-0.00027451
O		1.76437990		3.19284693		3.77792958		-0.00007114		-0.00013056		 0.00027451
O		0.87718973		4.78639090		1.06556998		-0.00016036		-0.00007538		-0.00094192
O		1.75464317		0.01199589		3.77792958		 0.00016036		 0.00007538		 0.00094192
O		-1.74464168		3.20484176		1.06556998		-0.00008252		 0.00009221		 0.00050749
O		4.37647353		1.59354397		3.77792958		 0.00008252		-0.00009221		-0.00050749
H		0.74665085		1.67607666		2.04395682		-0.00016648		 0.00005304		 0.00003299
H		1.88518206		3.12230961		2.79954274		 0.00016648		-0.00005304		-0.00003299
H		0.87955785		4.64099953		2.04395682		 0.00022469		-0.00002546		 0.00073064
H		1.75227400		0.15738673		2.79954274		-0.00022469		 0.00002546		-0.00073064
H		-1.62620870		3.27969687		2.04395682		 0.00078996		-0.00015140		-0.00056570
H		4.25804160		1.51868887		2.79954274		-0.00078996		 0.00015140		 0.00056570
