# total energy = -24715.2581507 eV

CRYSTAL
PRIMVEC
		9.03899958		0.00000000		0.00000000
		0.00000000		8.69500237		-0.34780263
		0.00000000		-0.20355827		5.08900196
PRIMECORD
   40 1
O		1.09371895		0.73925820		0.26969211		 0.00028861		-0.00000752		-0.00034765
O		1.09371895		7.82998186		2.52649168		-0.00044398		-0.00008248		-0.00028918
O		5.61321874		5.00895800		2.04080815		-0.00044398		 0.00008248		 0.00028918
O		5.61321874		3.40468201		4.64540763		 0.00028861		 0.00000752		 0.00034765
O		3.40679894		2.11747423		0.45183970		 0.00026727		-0.00018756		-0.00001261
O		3.40679894		6.43275410		2.81965717		 0.00016826		-0.00000146		-0.00050319
O		7.92629783		6.40618577		1.74764266		 0.00016826		 0.00000146		 0.00050319
O		7.92629783		2.02646597		4.46326094		 0.00026727		 0.00018756		 0.00001261
O		3.23415405		8.29884291		1.07036308		-0.00052550		-0.00070089		-0.00030759
O		3.23415405		0.18201201		3.93546472		-0.00055725		 0.00008851		-0.00055701
O		7.75365384		3.96192820		0.97963502		-0.00055725		-0.00008851		 0.00055701
O		7.75365384		4.54009696		3.49693675		-0.00052550		 0.00070089		 0.00030759
O		7.93985633		7.72301073		4.13733812		-0.00002356		 0.00008838		-0.00048190
O		7.93985633		0.71749771		1.87712995		 0.00035953		-0.00013249		-0.00021705
O		3.42035744		3.42644159		3.03796980		 0.00035953		 0.00013249		 0.00021705
O		3.42035744		5.11592914		0.42996171		-0.00002356		-0.00008838		 0.00048190
O		5.61683344		6.41565502		4.61439211		-0.00009959		-0.00005702		-0.00031948
O		5.61683344		1.99081887		2.25095676		 0.00027837		 0.00017239		-0.00009108
O		1.09733455		2.15312134		2.66414299		 0.00027837		-0.00017239		 0.00009108
O		1.09733455		6.42328394		-0.04709228		-0.00009959		 0.00005702		 0.00031948
O		5.84280843		8.16058960		2.53003496		 0.00014883		-0.00012472		-0.00062110
O		5.84280843		0.40730726		0.29973684		-0.00027479		-0.00057701		 0.00032457
O		1.32330863		3.73663294		4.61536290		-0.00027479		 0.00057701		-0.00032457
O		1.32330863		4.67834936		2.03726577		 0.00014883		 0.00012472		 0.00062110
Si		2.68187118		0.75732264		0.31723815		 0.00024303		-0.00046970		-0.00012502
Si		2.68187118		7.80804964		2.57563762		-0.00016215		-0.00012872		-0.00026265
Si		7.20137097		5.03088933		1.99166311		-0.00016215		 0.00012872		 0.00026265
Si		7.20137097		3.38661666		4.59786159		 0.00024303		 0.00046970		 0.00012502
Si		6.34447381		7.74045871		4.07008073		-0.00048045		-0.00050075		-0.00018566
Si		6.34447381		0.70538274		1.81105486		 0.00045621		-0.00000312		-0.00020599
Si		1.82497402		3.43855566		3.10404488		 0.00045621		 0.00000312		 0.00020599
Si		1.82497402		5.09848116		0.49721910		-0.00048045		 0.00050075		 0.00018566
Mg		9.01640118		0.68984108		3.61030117		-0.00014628		 0.00068061		-0.00084713
Mg		9.01640118		7.81544083		0.78484820		-0.00006597		 0.00026514		 0.00044957
Mg		4.49690139		5.02349814		3.78245253		-0.00006597		-0.00026514		-0.00044957
Mg		4.49690139		3.45409912		1.30480038		-0.00014628		-0.00068061		 0.00084713
Mg		0.05423400		2.24039107		1.00327653		 0.00018606		 0.00025733		-0.00010081
Mg		0.05423400		6.26525782		3.38271091		 0.00038334		 0.00022088		-0.00029014
Mg		4.57373379		6.57368205		1.18458892		 0.00038334		-0.00022088		 0.00029014
Mg		4.57373379		1.90354913		3.91182321		 0.00018606		-0.00025733		 0.00010081
