# total energy = -49433.5951678 eV

CRYSTAL
PRIMVEC
		18.23299940		0.00000000		0.00000000
		0.00000000		8.81910125		0.00000000
		0.00000000		0.00000000		5.30970469
PRIMECORD
   80 1
Mg		6.86107767		5.76857458		4.59979738		-0.00023546		-0.00086949		-0.00031123
Mg		11.37192172		3.05052666		0.70990730		 0.00023546		 0.00086949		 0.00031123
Mg		2.25542203		3.05052666		1.94494504		 0.00023546		 0.00086949		-0.00031123
Mg		15.97757737		5.76857458		3.36475964		-0.00023546		-0.00086949		 0.00031123
Mg		11.37192172		1.35902214		3.36475964		 0.00023546		-0.00086949		 0.00031123
Mg		6.86107767		7.46007729		1.94494504		-0.00023546		 0.00086949		-0.00031123
Mg		15.97757737		7.46007729		0.70990730		-0.00023546		 0.00086949		 0.00031123
Mg		2.25542203		1.35902214		4.59979738		 0.00023546		-0.00086949		-0.00031123
Mg		6.87201747		4.29666648		1.90565293		 0.00035352		 0.00023283		 0.00045984
Mg		11.36098192		4.52243295		3.40405176		-0.00035352		-0.00023283		-0.00045984
Mg		2.24448223		4.52243295		4.56050527		-0.00035352		-0.00023283		 0.00045984
Mg		15.98851717		4.29666648		0.74919942		 0.00035352		 0.00023283		-0.00045984
Mg		11.36098192		8.70621528		0.74919942		-0.00035352		 0.00023283		-0.00045984
Mg		6.87201747		0.11288415		4.56050527		 0.00035352		-0.00023283		 0.00045984
Mg		15.98851717		0.11288415		3.40405176		 0.00035352		-0.00023283		-0.00045984
Mg		2.24448223		8.70621528		1.90565293		-0.00035352		 0.00023283		 0.00045984
Si		4.95025934		3.01436880		0.26867054		-0.00062123		 0.00046286		 0.00067591
Si		13.28274006		5.80473244		5.04103415		 0.00062123		-0.00046286		-0.00067591
Si		4.16624036		5.80473244		2.92352471		 0.00062123		-0.00046286		 0.00067591
Si		14.06675903		3.01436880		2.38618180		-0.00062123		 0.00046286		-0.00067591
Si		13.28274006		7.42391760		2.38618180		 0.00062123		 0.00046286		-0.00067591
Si		4.95025934		1.39518182		2.92352471		-0.00062123		-0.00046286		 0.00067591
Si		14.06675903		1.39518182		5.04103415		-0.00062123		-0.00046286		-0.00067591
Si		4.16624036		7.42391760		0.26867054		 0.00062123		 0.00046286		 0.00067591
Si		8.63514851		2.97556351		4.23767543		 0.00064121		 0.00017960		 0.00018678
Si		9.59785088		5.84353591		1.07202926		-0.00064121		-0.00017960		-0.00018678
Si		0.48135118		5.84353591		1.58282309		-0.00064121		-0.00017960		 0.00018678
Si		17.75164821		2.97556351		3.72688160		 0.00064121		 0.00017960		-0.00018678
Si		9.59785088		7.38511413		3.72688160		-0.00064121		 0.00017960		-0.00018678
Si		8.63514851		1.43398529		1.58282309		 0.00064121		-0.00017960		 0.00018678
Si		17.75164821		1.43398529		1.07202926		 0.00064121		-0.00017960		-0.00018678
Si		0.48135118		7.38511413		4.23767543		-0.00064121		 0.00017960		 0.00018678
O		3.34575539		3.00466702		0.18053040		-0.00019283		 0.00071017		-0.00019568
O		14.88724401		5.81443240		5.12917429		 0.00019283		-0.00071017		 0.00019568
O		5.77074431		5.81443240		2.83538274		 0.00019283		-0.00071017		-0.00019568
O		12.46225509		3.00466702		2.47432377		-0.00019283		 0.00071017		 0.00019568
O		14.88724401		7.41421765		2.47432377		 0.00019283		 0.00071017		 0.00019568
O		3.34575539		1.40488360		2.83538274		-0.00019283		-0.00071017		-0.00019568
O		12.46225509		1.40488360		5.12917429		-0.00019283		-0.00071017		 0.00019568
O		5.77074431		7.41421765		0.18053040		 0.00019283		 0.00071017		-0.00019568
O		5.67775601		4.43512605		0.22831727		 0.00011622		 0.00001758		 0.00017989
O		12.55524338		4.38397519		5.08138742		-0.00011622		-0.00001758		-0.00017989
O		3.43874369		4.38397519		2.88316961		-0.00011622		-0.00001758		 0.00017989
O		14.79425571		4.43512605		2.42653508		 0.00011622		 0.00001758		-0.00017989
O		12.55524338		0.02557543		2.42653508		-0.00011622		 0.00001758		-0.00017989
O		5.67775601		8.79352399		2.88316961		 0.00011622		-0.00001758		 0.00017989
O		14.79425571		8.79352399		5.08138742		 0.00011622		-0.00001758		-0.00017989
O		3.43874369		0.02557543		0.22831727		-0.00011622		 0.00001758		 0.00017989
O		5.51548232		1.96136750		4.41767525		 0.00025779		 0.00019135		 0.00064811
O		12.71751708		6.85773192		0.89202944		-0.00025779		-0.00019135		-0.00064811
O		3.60101738		6.85773192		1.76282108		-0.00025779		-0.00019135		 0.00064811
O		14.63198202		1.96136750		3.54688361		 0.00025779		 0.00019135		-0.00064811
O		12.71751708		6.37091813		3.54688361		-0.00025779		 0.00019135		-0.00064811
O		5.51548232		2.44818129		1.76282108		 0.00025779		-0.00019135		 0.00064811
O		14.63198202		2.44818129		0.89202944		 0.00025779		-0.00019135		-0.00064811
O		3.60101738		6.37091813		4.41767525		-0.00025779		 0.00019135		 0.00064811
O		10.25059226		3.01084072		4.23714485		 0.00002844		 0.00068546		 0.00006948
O		7.98240714		5.80825871		1.07256166		-0.00002844		-0.00068546		-0.00006948
O		17.09890683		5.80825871		1.58229251		-0.00002844		-0.00068546		 0.00006948
O		1.13409256		3.01084072		3.72741218		 0.00002844		 0.00068546		-0.00006948
O		7.98240714		7.42039134		3.72741218		-0.00002844		 0.00068546		-0.00006948
O		10.25059226		1.39870808		1.58229251		 0.00002844		-0.00068546		 0.00006948
O		1.13409256		1.39870808		1.07256166		 0.00002844		-0.00068546		-0.00006948
O		17.09890683		7.42039134		4.23714485		-0.00002844		 0.00068546		 0.00006948
O		7.88394894		4.26491735		3.66369696		-0.00014430		 0.00000444		 0.00007318
O		10.34905046		4.55418207		1.64600955		 0.00014430		-0.00000444		-0.00007318
O		1.23255076		4.55418207		1.00884462		 0.00014430		-0.00000444		 0.00007318
O		17.00044864		4.26491735		4.30086007		-0.00014430		 0.00000444		-0.00007318
O		10.34905046		8.67446615		4.30086007		 0.00014430		 0.00000444		-0.00007318
O		7.88394894		0.14463327		1.00884462		-0.00014430		-0.00000444		 0.00007318
O		17.00044864		0.14463327		1.64600955		-0.00014430		-0.00000444		-0.00007318
O		1.23255076		8.67446615		3.66369696		 0.00014430		 0.00000444		 0.00007318
O		8.17385363		1.72060622		3.20175116		-0.00026721		 0.00040971		-0.00010066
O		10.05914577		7.09849320		2.10795353		 0.00026721		-0.00040971		 0.00010066
O		0.94264607		7.09849320		0.54690064		 0.00026721		-0.00040971		-0.00010066
O		17.29035333		1.72060622		4.76280587		-0.00026721		 0.00040971		 0.00010066
O		10.05914577		6.13015684		4.76280587		 0.00026721		 0.00040971		 0.00010066
O		8.17385363		2.68894441		0.54690064		-0.00026721		-0.00040971		-0.00010066
O		17.29035333		2.68894441		2.10795353		-0.00026721		-0.00040971		 0.00010066
O		0.94264607		6.13015684		3.20175116		 0.00026721		 0.00040971		-0.00010066
