# total energy = -49431.6453182 eV

CRYSTAL
PRIMVEC
		18.23299940		0.00000000		0.00000000
		0.00000000		8.81910125		0.00000000
		0.00000000		0.00000000		4.92119594
PRIMECORD
   80 1
Mg		6.86107767		5.76857458		4.26322716		-0.00002536		 0.00054560		 0.00003738
Mg		11.37192172		3.05052666		0.65796331		 0.00002536		-0.00054560		-0.00003738
Mg		2.25542203		3.05052666		1.80263283		 0.00002536		-0.00054560		 0.00003738
Mg		15.97757737		5.76857458		3.11855763		-0.00002536		 0.00054560		-0.00003738
Mg		11.37192172		1.35902214		3.11855763		 0.00002536		 0.00054560		-0.00003738
Mg		6.86107767		7.46007729		1.80263283		-0.00002536		-0.00054560		 0.00003738
Mg		15.97757737		7.46007729		0.65796331		-0.00002536		-0.00054560		-0.00003738
Mg		2.25542203		1.35902214		4.26322716		 0.00002536		 0.00054560		 0.00003738
Mg		6.87201747		4.29666648		1.76621424		 0.00028928		 0.00008549		 0.00027465
Mg		11.36098192		4.52243295		3.15497440		-0.00028928		-0.00008549		-0.00027465
Mg		2.24448223		4.52243295		4.22681039		-0.00028928		-0.00008549		 0.00027465
Mg		15.98851717		4.29666648		0.69438008		 0.00028928		 0.00008549		-0.00027465
Mg		11.36098192		8.70621528		0.69438008		-0.00028928		 0.00008549		-0.00027465
Mg		6.87201747		0.11288415		4.22681039		 0.00028928		-0.00008549		 0.00027465
Mg		15.98851717		0.11288415		3.15497440		 0.00028928		-0.00008549		-0.00027465
Mg		2.24448223		8.70621528		1.76621424		-0.00028928		 0.00008549		 0.00027465
Si		4.95025934		3.01436880		0.24901172		-0.00005270		 0.00020304		-0.00031717
Si		13.28274006		5.80473244		4.67217875		 0.00005270		-0.00020304		 0.00031717
Si		4.16624036		5.80473244		2.70960604		 0.00005270		-0.00020304		-0.00031717
Si		14.06675903		3.01436880		2.21158260		-0.00005270		 0.00020304		 0.00031717
Si		13.28274006		7.42391760		2.21158260		 0.00005270		 0.00020304		 0.00031717
Si		4.95025934		1.39518182		2.70960604		-0.00005270		-0.00020304		-0.00031717
Si		14.06675903		1.39518182		4.67217875		-0.00005270		-0.00020304		 0.00031717
Si		4.16624036		7.42391760		0.24901172		 0.00005270		 0.00020304		-0.00031717
Si		8.63514851		2.97556351		3.92760140		-0.00012989		 0.00023829		-0.00002980
Si		9.59785088		5.84353591		0.99358725		 0.00012989		-0.00023829		 0.00002980
Si		0.48135118		5.84353591		1.46700708		 0.00012989		-0.00023829		-0.00002980
Si		17.75164821		2.97556351		3.45418339		-0.00012989		 0.00023829		 0.00002980
Si		9.59785088		7.38511413		3.45418339		 0.00012989		 0.00023829		 0.00002980
Si		8.63514851		1.43398529		1.46700708		-0.00012989		-0.00023829		-0.00002980
Si		17.75164821		1.43398529		0.99358725		-0.00012989		-0.00023829		 0.00002980
Si		0.48135118		7.38511413		3.92760140		 0.00012989		 0.00023829		-0.00002980
O		3.34575539		3.00466702		0.16732059		 0.00021104		 0.00035099		-0.00056057
O		14.88724401		5.81443240		4.75386988		-0.00021104		-0.00035099		 0.00056057
O		5.77074431		5.81443240		2.62791491		-0.00021104		-0.00035099		-0.00056057
O		12.46225509		3.00466702		2.29327556		 0.00021104		 0.00035099		 0.00056057
O		14.88724401		7.41421765		2.29327556		-0.00021104		 0.00035099		 0.00056057
O		3.34575539		1.40488360		2.62791491		 0.00021104		-0.00035099		-0.00056057
O		12.46225509		1.40488360		4.75386988		 0.00021104		-0.00035099		 0.00056057
O		5.77074431		7.41421765		0.16732059		-0.00021104		 0.00035099		-0.00056057
O		5.67775601		4.43512605		0.21161037		-0.00015789		-0.00014432		 0.00002425
O		12.55524338		4.38397519		4.70957827		 0.00015789		 0.00014432		-0.00002425
O		3.43874369		4.38397519		2.67220651		 0.00015789		 0.00014432		 0.00002425
O		14.79425571		4.43512605		2.24898395		-0.00015789		-0.00014432		-0.00002425
O		12.55524338		0.02557543		2.24898395		 0.00015789		-0.00014432		-0.00002425
O		5.67775601		8.79352399		2.67220651		-0.00015789		 0.00014432		 0.00002425
O		14.79425571		8.79352399		4.70957827		-0.00015789		 0.00014432		-0.00002425
O		3.43874369		0.02557543		0.21161037		 0.00015789		-0.00014432		 0.00002425
O		5.51548232		1.96136750		4.09442969		 0.00024552		 0.00032278		-0.00020363
O		12.71751708		6.85773192		0.82676077		-0.00024552		-0.00032278		 0.00020363
O		3.60101738		6.85773192		1.63383537		-0.00024552		-0.00032278		-0.00020363
O		14.63198202		1.96136750		3.28735509		 0.00024552		 0.00032278		 0.00020363
O		12.71751708		6.37091813		3.28735509		-0.00024552		 0.00032278		 0.00020363
O		5.51548232		2.44818129		1.63383537		 0.00024552		-0.00032278		-0.00020363
O		14.63198202		2.44818129		0.82676077		 0.00024552		-0.00032278		 0.00020363
O		3.60101738		6.37091813		4.09442969		-0.00024552		 0.00032278		-0.00020363
O		10.25059226		3.01084072		3.92710911		-0.00044942		 0.00036179		-0.00034895
O		7.98240714		5.80825871		0.99408136		 0.00044942		-0.00036179		 0.00034895
O		17.09890683		5.80825871		1.46651478		 0.00044942		-0.00036179		-0.00034895
O		1.13409256		3.01084072		3.45467568		-0.00044942		 0.00036179		 0.00034895
O		7.98240714		7.42039134		3.45467568		 0.00044942		 0.00036179		 0.00034895
O		10.25059226		1.39870808		1.46651478		-0.00044942		-0.00036179		-0.00034895
O		1.13409256		1.39870808		0.99408136		-0.00044942		-0.00036179		 0.00034895
O		17.09890683		7.42039134		3.92710911		 0.00044942		 0.00036179		-0.00034895
O		7.88394894		4.26491735		3.39562082		-0.00017468		-0.00035430		-0.00031219
O		10.34905046		4.55418207		1.52556965		 0.00017468		 0.00035430		 0.00031219
O		1.23255076		4.55418207		0.93502650		 0.00017468		 0.00035430		-0.00031219
O		17.00044864		4.26491735		3.98616397		-0.00017468		-0.00035430		 0.00031219
O		10.34905046		8.67446615		3.98616397		 0.00017468		-0.00035430		 0.00031219
O		7.88394894		0.14463327		0.93502650		-0.00017468		 0.00035430		-0.00031219
O		17.00044864		0.14463327		1.52556965		-0.00017468		 0.00035430		 0.00031219
O		1.23255076		8.67446615		3.39562082		 0.00017468		-0.00035430		-0.00031219
O		8.17385363		1.72060622		2.96747717		 0.00050918		 0.00051011		 0.00039460
O		10.05914577		7.09849320		1.95371329		-0.00050918		-0.00051011		-0.00039460
O		0.94264607		7.09849320		0.50688285		-0.00050918		-0.00051011		 0.00039460
O		17.29035333		1.72060622		4.41430761		 0.00050918		 0.00051011		-0.00039460
O		10.05914577		6.13015684		4.41430761		-0.00050918		 0.00051011		-0.00039460
O		8.17385363		2.68894441		0.50688285		 0.00050918		-0.00051011		 0.00039460
O		17.29035333		2.68894441		1.95371329		 0.00050918		-0.00051011		-0.00039460
O		0.94264607		6.13015684		2.96747717		-0.00050918		 0.00051011		 0.00039460
