# total energy = -49426.1299028 eV

CRYSTAL
PRIMVEC
		18.23299940		0.00000000		0.00000000
		0.00000000		8.81910125		0.00000000
		0.00000000		0.00000000		4.66217795
PRIMECORD
   80 1
Mg		6.86107767		5.76857458		4.03884640		-0.00000764		 0.00056011		 0.00037142
Mg		11.37192172		3.05052666		0.62333337		 0.00000764		-0.00056011		-0.00037142
Mg		2.25542203		3.05052666		1.70775742		 0.00000764		-0.00056011		 0.00037142
Mg		15.97757737		5.76857458		2.95442417		-0.00000764		 0.00056011		-0.00037142
Mg		11.37192172		1.35902214		2.95442417		 0.00000764		 0.00056011		-0.00037142
Mg		6.86107767		7.46007729		1.70775742		-0.00000764		-0.00056011		 0.00037142
Mg		15.97757737		7.46007729		0.62333337		-0.00000764		-0.00056011		-0.00037142
Mg		2.25542203		1.35902214		4.03884640		 0.00000764		 0.00056011		 0.00037142
Mg		6.87201747		4.29666648		1.67325512		 0.00051870		-0.00045063		 0.00047772
Mg		11.36098192		4.52243295		2.98892465		-0.00051870		 0.00045063		-0.00047772
Mg		2.24448223		4.52243295		4.00434774		-0.00051870		 0.00045063		 0.00047772
Mg		15.98851717		4.29666648		0.65783386		 0.00051870		-0.00045063		-0.00047772
Mg		11.36098192		8.70621528		0.65783386		-0.00051870		-0.00045063		-0.00047772
Mg		6.87201747		0.11288415		4.00434774		 0.00051870		 0.00045063		 0.00047772
Mg		15.98851717		0.11288415		2.98892465		 0.00051870		 0.00045063		-0.00047772
Mg		2.24448223		8.70621528		1.67325512		-0.00051870		-0.00045063		 0.00047772
Si		4.95025934		3.01436880		0.23590584		-0.00003236		 0.00035541		-0.00064612
Si		13.28274006		5.80473244		4.42627393		 0.00003236		-0.00035541		 0.00064612
Si		4.16624036		5.80473244		2.56699664		 0.00003236		-0.00035541		-0.00064612
Si		14.06675903		3.01436880		2.09518313		-0.00003236		 0.00035541		 0.00064612
Si		13.28274006		7.42391760		2.09518313		 0.00003236		 0.00035541		 0.00064612
Si		4.95025934		1.39518182		2.56699664		-0.00003236		-0.00035541		-0.00064612
Si		14.06675903		1.39518182		4.42627393		-0.00003236		-0.00035541		 0.00064612
Si		4.16624036		7.42391760		0.23590584		 0.00003236		 0.00035541		-0.00064612
Si		8.63514851		2.97556351		3.72088659		-0.00008428		 0.00040483		-0.00000235
Si		9.59785088		5.84353591		0.94129318		 0.00008428		-0.00040483		 0.00000235
Si		0.48135118		5.84353591		1.38979579		 0.00008428		-0.00040483		-0.00000235
Si		17.75164821		2.97556351		3.27238398		-0.00008428		 0.00040483		 0.00000235
Si		9.59785088		7.38511413		3.27238398		 0.00008428		 0.00040483		 0.00000235
Si		8.63514851		1.43398529		1.38979579		-0.00008428		-0.00040483		-0.00000235
Si		17.75164821		1.43398529		0.94129318		-0.00008428		-0.00040483		 0.00000235
Si		0.48135118		7.38511413		3.72088659		 0.00008428		 0.00040483		-0.00000235
O		3.34575539		3.00466702		0.15851405		-0.00010728		 0.00021215		-0.00049780
O		14.88724401		5.81443240		4.50366572		 0.00010728		-0.00021215		 0.00049780
O		5.77074431		5.81443240		2.48960302		 0.00010728		-0.00021215		-0.00049780
O		12.46225509		3.00466702		2.17257675		-0.00010728		 0.00021215		 0.00049780
O		14.88724401		7.41421765		2.17257675		 0.00010728		 0.00021215		 0.00049780
O		3.34575539		1.40488360		2.48960302		-0.00010728		-0.00021215		-0.00049780
O		12.46225509		1.40488360		4.50366572		-0.00010728		-0.00021215		 0.00049780
O		5.77074431		7.41421765		0.15851405		 0.00010728		 0.00021215		-0.00049780
O		5.67775601		4.43512605		0.20047365		 0.00042267		-0.00000437		-0.00010707
O		12.55524338		4.38397519		4.46170612		-0.00042267		 0.00000437		 0.00010707
O		3.43874369		4.38397519		2.53156445		-0.00042267		 0.00000437		-0.00010707
O		14.79425571		4.43512605		2.13061532		 0.00042267		-0.00000437		 0.00010707
O		12.55524338		0.02557543		2.13061532		-0.00042267		-0.00000437		 0.00010707
O		5.67775601		8.79352399		2.53156445		 0.00042267		 0.00000437		-0.00010707
O		14.79425571		8.79352399		4.46170612		 0.00042267		 0.00000437		 0.00010707
O		3.43874369		0.02557543		0.20047365		-0.00042267		-0.00000437		-0.00010707
O		5.51548232		1.96136750		3.87893387		-0.00005814		 0.00010052		-0.00050765
O		12.71751708		6.85773192		0.78324589		 0.00005814		-0.00010052		 0.00050765
O		3.60101738		6.85773192		1.54784308		 0.00005814		-0.00010052		-0.00050765
O		14.63198202		1.96136750		3.11433669		-0.00005814		 0.00010052		 0.00050765
O		12.71751708		6.37091813		3.11433669		 0.00005814		 0.00010052		 0.00050765
O		5.51548232		2.44818129		1.54784308		-0.00005814		-0.00010052		-0.00050765
O		14.63198202		2.44818129		0.78324589		-0.00005814		-0.00010052		 0.00050765
O		3.60101738		6.37091813		3.87893387		 0.00005814		 0.00010052		-0.00050765
O		10.25059226		3.01084072		3.72041982		-0.00043948		-0.00004118		 0.00003049
O		7.98240714		5.80825871		0.94175995		 0.00043948		 0.00004118		-0.00003049
O		17.09890683		5.80825871		1.38933085		 0.00043948		 0.00004118		 0.00003049
O		1.13409256		3.01084072		3.27285074		-0.00043948		-0.00004118		-0.00003049
O		7.98240714		7.42039134		3.27285074		 0.00043948		-0.00004118		-0.00003049
O		10.25059226		1.39870808		1.38933085		-0.00043948		 0.00004118		 0.00003049
O		1.13409256		1.39870808		0.94175995		-0.00043948		 0.00004118		-0.00003049
O		17.09890683		7.42039134		3.72041982		 0.00043948		-0.00004118		 0.00003049
O		7.88394894		4.26491735		3.21690461		-0.00016042		-0.00021082		-0.00049489
O		10.34905046		4.55418207		1.44527516		 0.00016042		 0.00021082		 0.00049489
O		1.23255076		4.55418207		0.88581381		 0.00016042		 0.00021082		-0.00049489
O		17.00044864		4.26491735		3.77636596		-0.00016042		-0.00021082		 0.00049489
O		10.34905046		8.67446615		3.77636596		 0.00016042		-0.00021082		 0.00049489
O		7.88394894		0.14463327		0.88581381		-0.00016042		 0.00021082		-0.00049489
O		17.00044864		0.14463327		1.44527516		-0.00016042		 0.00021082		 0.00049489
O		1.23255076		8.67446615		3.21690461		 0.00016042		-0.00021082		-0.00049489
O		8.17385363		1.72060622		2.81129512		 0.00010686		 0.00052077		 0.00003778
O		10.05914577		7.09849320		1.85088647		-0.00010686		-0.00052077		-0.00003778
O		0.94264607		7.09849320		0.48020433		-0.00010686		-0.00052077		 0.00003778
O		17.29035333		1.72060622		4.18197544		 0.00010686		 0.00052077		-0.00003778
O		10.05914577		6.13015684		4.18197544		-0.00010686		 0.00052077		-0.00003778
O		8.17385363		2.68894441		0.48020433		 0.00010686		-0.00052077		 0.00003778
O		17.29035333		2.68894441		1.85088647		 0.00010686		-0.00052077		-0.00003778
O		0.94264607		6.13015684		2.81129512		-0.00010686		 0.00052077		 0.00003778
