# total energy = -49432.9963269 eV

CRYSTAL
PRIMVEC
		18.23299940		0.00000000		0.00000000
		0.00000000		8.81910125		0.00000000
		0.00000000		0.00000000		5.43921368
PRIMECORD
   80 1
Mg		6.86107767		5.76857458		4.71198868		 0.00029375		-0.00005455		 0.00003068
Mg		11.37192172		3.05052666		0.72722136		-0.00029375		 0.00005455		-0.00003068
Mg		2.25542203		3.05052666		1.99238366		-0.00029375		 0.00005455		 0.00003068
Mg		15.97757737		5.76857458		3.44682820		 0.00029375		-0.00005455		-0.00003068
Mg		11.37192172		1.35902214		3.44682820		-0.00029375		-0.00005455		-0.00003068
Mg		6.86107767		7.46007729		1.99238366		 0.00029375		 0.00005455		 0.00003068
Mg		15.97757737		7.46007729		0.72722136		 0.00029375		 0.00005455		-0.00003068
Mg		2.25542203		1.35902214		4.71198868		-0.00029375		-0.00005455		 0.00003068
Mg		6.87201747		4.29666648		1.95213249		-0.00053713		 0.00058023		 0.00048358
Mg		11.36098192		4.52243295		3.48707754		 0.00053713		-0.00058023		-0.00048358
Mg		2.24448223		4.52243295		4.67173751		 0.00053713		-0.00058023		 0.00048358
Mg		15.98851717		4.29666648		0.76747253		-0.00053713		 0.00058023		-0.00048358
Mg		11.36098192		8.70621528		0.76747253		 0.00053713		 0.00058023		-0.00048358
Mg		6.87201747		0.11288415		4.67173751		-0.00053713		-0.00058023		 0.00048358
Mg		15.98851717		0.11288415		3.48707754		-0.00053713		-0.00058023		-0.00048358
Mg		2.24448223		8.70621528		1.95213249		 0.00053713		 0.00058023		 0.00048358
Si		4.95025934		3.01436880		0.27522348		 0.00029711		-0.00054900		-0.00043839
Si		13.28274006		5.80473244		5.16398656		-0.00029711		 0.00054900		 0.00043839
Si		4.16624036		5.80473244		2.99482850		-0.00029711		 0.00054900		-0.00043839
Si		14.06675903		3.01436880		2.44438154		 0.00029711		-0.00054900		 0.00043839
Si		13.28274006		7.42391760		2.44438154		-0.00029711		-0.00054900		 0.00043839
Si		4.95025934		1.39518182		2.99482850		 0.00029711		 0.00054900		-0.00043839
Si		14.06675903		1.39518182		5.16398656		 0.00029711		 0.00054900		 0.00043839
Si		4.16624036		7.42391760		0.27522348		-0.00029711		-0.00054900		-0.00043839
Si		8.63514851		2.97556351		4.34103466		-0.00019230		-0.00028819		 0.00012042
Si		9.59785088		5.84353591		1.09817720		 0.00019230		 0.00028819		-0.00012042
Si		0.48135118		5.84353591		1.62142964		 0.00019230		 0.00028819		 0.00012042
Si		17.75164821		2.97556351		3.81778222		-0.00019230		-0.00028819		-0.00012042
Si		9.59785088		7.38511413		3.81778222		 0.00019230		-0.00028819		-0.00012042
Si		8.63514851		1.43398529		1.62142964		-0.00019230		 0.00028819		 0.00012042
Si		17.75164821		1.43398529		1.09817720		-0.00019230		 0.00028819		-0.00012042
Si		0.48135118		7.38511413		4.34103466		 0.00019230		-0.00028819		 0.00012042
O		3.34575539		3.00466702		0.18493367		-0.00011974		 0.00031035		 0.00010255
O		14.88724401		5.81443240		5.25427637		 0.00011974		-0.00031035		-0.00010255
O		5.77074431		5.81443240		2.90453868		 0.00011974		-0.00031035		 0.00010255
O		12.46225509		3.00466702		2.53467135		-0.00011974		 0.00031035		-0.00010255
O		14.88724401		7.41421765		2.53467135		 0.00011974		 0.00031035		-0.00010255
O		3.34575539		1.40488360		2.90453868		-0.00011974		-0.00031035		 0.00010255
O		12.46225509		1.40488360		5.25427637		-0.00011974		-0.00031035		-0.00010255
O		5.77074431		7.41421765		0.18493367		 0.00011974		 0.00031035		 0.00010255
O		5.67775601		4.43512605		0.23388562		 0.00034637		-0.00050484		 0.00041422
O		12.55524338		4.38397519		5.20532441		-0.00034637		 0.00050484		-0.00041422
O		3.43874369		4.38397519		2.95349064		-0.00034637		 0.00050484		 0.00041422
O		14.79425571		4.43512605		2.48571939		 0.00034637		-0.00050484		-0.00041422
O		12.55524338		0.02557543		2.48571939		-0.00034637		-0.00050484		-0.00041422
O		5.67775601		8.79352399		2.95349064		 0.00034637		 0.00050484		 0.00041422
O		14.79425571		8.79352399		5.20532441		 0.00034637		 0.00050484		-0.00041422
O		3.43874369		0.02557543		0.23388562		-0.00034637		-0.00050484		 0.00041422
O		5.51548232		1.96136750		4.52542316		 0.00038880		-0.00023540		 0.00002106
O		12.71751708		6.85773192		0.91378688		-0.00038880		 0.00023540		-0.00002106
O		3.60101738		6.85773192		1.80581814		-0.00038880		 0.00023540		 0.00002106
O		14.63198202		1.96136750		3.63339189		 0.00038880		-0.00023540		-0.00002106
O		12.71751708		6.37091813		3.63339189		-0.00038880		-0.00023540		-0.00002106
O		5.51548232		2.44818129		1.80581814		 0.00038880		 0.00023540		 0.00002106
O		14.63198202		2.44818129		0.91378688		 0.00038880		 0.00023540		-0.00002106
O		3.60101738		6.37091813		4.52542316		-0.00038880		-0.00023540		 0.00002106
O		10.25059226		3.01084072		4.34048949		 0.00014338		 0.00001168		-0.00014316
O		7.98240714		5.80825871		1.09872054		-0.00014338		-0.00001168		 0.00014316
O		17.09890683		5.80825871		1.62088447		-0.00014338		-0.00001168		-0.00014316
O		1.13409256		3.01084072		3.81832556		 0.00014338		 0.00001168		 0.00014316
O		7.98240714		7.42039134		3.81832556		-0.00014338		 0.00001168		 0.00014316
O		10.25059226		1.39870808		1.62088447		 0.00014338		-0.00001168		-0.00014316
O		1.13409256		1.39870808		1.09872054		 0.00014338		-0.00001168		 0.00014316
O		17.09890683		7.42039134		4.34048949		-0.00014338		 0.00001168		-0.00014316
O		7.88394894		4.26491735		3.75305507		-0.00020107		-0.00004184		 0.00053733
O		10.34905046		4.55418207		1.68615496		 0.00020107		 0.00004184		-0.00053733
O		1.23255076		4.55418207		1.03345005		 0.00020107		 0.00004184		 0.00053733
O		17.00044864		4.26491735		4.40575998		-0.00020107		-0.00004184		-0.00053733
O		10.34905046		8.67446615		4.40575998		 0.00020107		-0.00004184		-0.00053733
O		7.88394894		0.14463327		1.03345005		-0.00020107		 0.00004184		 0.00053733
O		17.00044864		0.14463327		1.68615496		-0.00020107		 0.00004184		-0.00053733
O		1.23255076		8.67446615		3.75305507		 0.00020107		-0.00004184		 0.00053733
O		8.17385363		1.72060622		3.27984310		-0.00049681		-0.00029571		 0.00069380
O		10.05914577		7.09849320		2.15936511		 0.00049681		 0.00029571		-0.00069380
O		0.94264607		7.09849320		0.56023808		 0.00049681		 0.00029571		 0.00069380
O		17.29035333		1.72060622		4.87897196		-0.00049681		-0.00029571		-0.00069380
O		10.05914577		6.13015684		4.87897196		 0.00049681		-0.00029571		-0.00069380
O		8.17385363		2.68894441		0.56023808		-0.00049681		 0.00029571		 0.00069380
O		17.29035333		2.68894441		2.15936511		-0.00049681		 0.00029571		-0.00069380
O		0.94264607		6.13015684		3.27984310		 0.00049681		-0.00029571		 0.00069380
