# total energy = -24714.9835821 eV	

CRYSTAL	
PRIMVEC	
		9.03900340		0.00000000		1.44624457	
		0.00000000		8.69499728		0.00000000	
		0.81423631		0.00000000		5.08900210	
PRIMCOORD
   40 1	
O		1.14167832		0.75124785		0.47473669		-0.00018335		-0.00019509		 0.00025369	
O		1.54879831		7.94375126		3.01923682		-0.00018335		 0.00019509		 0.00025369	
O		5.97238016		5.09874833		3.14287306		 0.00060481		 0.00017519		 0.00028810	
O		6.37950014		3.59625170		5.68737319		 0.00060481		-0.00017519		 0.00028810	
O		3.49278257		2.13897019		1.08248602		-0.00044832		 0.00042592		 0.00050688	
O		3.89990347		6.55602984		3.62698615		-0.00044832		-0.00042592		 0.00050688	
O		8.24743507		6.48646975		3.27530901		-0.00015281		 0.00089896		-0.00062487	
O		8.65455505		2.20853028		5.81981005		-0.00015281		-0.00089896		-0.00062487	
O		3.45888360		8.35502532		1.92202939		-0.00000906		 0.00010199		-0.00072112	
O		3.86600358		0.33997380		4.46652860		-0.00000906		-0.00010199		-0.00072112	
O		7.93604362		4.00752484		2.38052144		-0.00041671		 0.00028910		 0.00051539	
O		8.34316360		4.68747427		4.92502066		-0.00041671		-0.00028910		 0.00051539	
O		8.65239929		7.90114595		5.72376113		 0.00021087		 0.00041359		 0.00000872	
O		8.24527931		0.79385408		3.17926100		 0.00021087		-0.00041359		 0.00000872	
O		3.92917603		3.55364639		3.72737314		 0.00001431		 0.00022272		-0.00006875	
O		3.52205605		5.14135272		1.18287301		 0.00001431		-0.00022272		-0.00006875	
O		6.39744558		6.61080810		5.77751781		-0.00008477		-0.00000705		-0.00015817	
O		5.99032559		2.08419193		3.23301767		-0.00008477		 0.00000705		-0.00015817	
O		1.53808267		2.26330763		2.93024926		 0.00022812		 0.00036394		-0.00040647	
O		1.13096269		6.43169057		0.38574913		 0.00022812		-0.00036394		-0.00040647	
O		6.30057463		8.27503062		3.79588510		-0.00014951		 0.00033917		-0.00005377	
O		5.89345464		0.41996941		1.25138497		-0.00014951		-0.00033917		-0.00005377	
O		2.08690425		3.92753106		4.98419374		-0.00002214		 0.00045999		-0.00002600	
O		1.67978427		4.76746897		2.43969361		-0.00002214		-0.00045999		-0.00002600	
Si		2.73756464		0.77124561		0.77718745		-0.00009139		 0.00034042		-0.00055459	
Si		3.14468463		7.92375259		3.32168667		-0.00009139		-0.00034042		-0.00055459	
Si		7.55279718		5.11874608		3.34863229		 0.00034907		-0.00018947		 0.00051087	
Si		7.95991717		3.57625303		5.89313242		 0.00034907		 0.00018947		 0.00051087	
Si		7.04634932		7.91592686		5.40183438		 0.00029944		 0.00026439		-0.00027459	
Si		6.63922934		0.77907225		2.85733425		 0.00029944		-0.00026439		-0.00027459	
Si		2.34445938		3.56842822		3.53877760		 0.00034690		 0.00045942		 0.00036329	
Si		1.93733940		5.12657181		0.99427838		 0.00034690		-0.00045942		 0.00036329	
Mg		9.59939835		0.83558885		5.08634928		 0.00009821		-0.00079827		-0.00016123	
Mg		9.19227836		7.85941026		2.54184823		 0.00009821		 0.00079827		-0.00016123	
Mg		5.13526625		5.18308933		4.70927994		-0.00015254		-0.00016110		 0.00073187	
Mg		4.72814627		3.51190979		2.16477981		-0.00015254		 0.00016110		 0.00073187	
Mg		0.22937739		2.28417593		1.10332137		-0.00015514		-0.00052959		-0.00066483	
Mg		0.63649737		6.41082410		3.64782058		-0.00015514		 0.00052959		-0.00066483	
Mg		4.80571058		6.63167640		2.18165423		-0.00028596		-0.00002288		 0.00053559	
Mg		5.21283057		2.06332363		4.72615436		-0.00028596		 0.00002288		 0.00053559	
