# total energy = -24715.3726497 eV	

CRYSTAL	
PRIMVEC	
		9.03900020		0.00000000		0.36155965	
		0.00000000		8.69499929		0.00000000	
		0.20355823		0.00000000		5.08900087	
PRIMCOORD
   40 1	
O		1.10570871		0.75124763		0.34349071		-0.00029241		-0.00012310		-0.00007710	
O		1.20748872		7.94375075		2.88799115		-0.00029241		 0.00012310		-0.00007710	
O		5.70300908		5.09874818		2.46928738		 0.00017979		-0.00000004		 0.00055241	
O		5.80478910		3.59625201		5.01378691		 0.00017979		 0.00000004		 0.00055241	
O		3.42829521		2.13896979		0.67366990		 0.00011681		-0.00009485		 0.00015989	
O		3.53007523		6.55602950		3.21817033		 0.00011681		 0.00009485		 0.00015989	
O		8.00658223		6.48646943		2.32415422		 0.00008201		-0.00012670		 0.00036674	
O		8.10836225		2.20852986		4.86865375		 0.00008201		 0.00012670		 0.00036674	
O		3.29033662		8.35502485		1.53393001		-0.00074927		 0.00004404		-0.00051009	
O		3.39211663		0.33997444		4.07842954		-0.00074927		-0.00004404		-0.00051009	
O		7.79925082		4.00752520		1.45008233		-0.00013663		-0.00001277		 0.00011142	
O		7.90103084		4.68747409		3.99458186		-0.00013663		 0.00001277		 0.00011142	
O		8.11799286		7.90114573		4.77097801		-0.00019867		 0.00035672		-0.00023489	
O		8.01621284		0.79385356		2.22647757		-0.00019867		-0.00035672		-0.00023489	
O		3.54756159		3.55364608		3.31692981		 0.00003048		 0.00037609		-0.00003315	
O		3.44578157		5.14135320		0.77243028		 0.00003048		-0.00037609		-0.00003315	
O		5.81198719		6.61080803		5.10349745		 0.00021545		-0.00024391		-0.00048415	
O		5.71020717		2.08419216		2.55899792		 0.00021545		 0.00024391		-0.00048415	
O		1.20752219		2.26330839		2.79856918		 0.00049021		-0.00003814		-0.00004036	
O		1.10574218		6.43169090		0.25406875		 0.00049021		 0.00003814		-0.00004036	
O		5.95725061		8.27503086		3.09474812		 0.00003921		-0.00004456		 0.00019976	
O		5.85547059		0.41996933		0.55024768		 0.00003921		 0.00004456		 0.00019976	
O		1.51420833		3.92753122		4.82539650		 0.00005721		 0.00014693		-0.00003487	
O		1.41242831		4.76746898		2.28089697		 0.00005721		-0.00014693		-0.00003487	
Si		2.69579498		0.77124613		0.45536180		-0.00015981		-0.00010744		-0.00022235	
Si		2.79757500		7.92375316		2.99986314		-0.00015981		 0.00010744		-0.00022235	
Si		7.28922719		5.11874577		2.48446695		 0.00039997		-0.00035104		 0.00037636	
Si		7.39100721		3.57625261		5.02896648		 0.00039997		 0.00035104		 0.00037636	
Si		6.51994319		7.91592726		4.64049702		-0.00031108		 0.00017324		-0.00006570	
Si		6.41816317		0.77907202		2.09599659		-0.00031108		-0.00017324		-0.00006570	
Si		1.95484467		3.56842762		3.31978118		-0.00041597		 0.00007162		-0.00036386	
Si		1.85306465		5.12657167		0.77528075		-0.00041597		-0.00007162		-0.00036386	
Mg		9.16215103		0.83558924		4.00437983		-0.00004340		 0.00022099		 0.00022773	
Mg		9.06037101		7.85941005		1.45988030		-0.00004340		-0.00022099		 0.00022773	
Mg		4.65649256		5.18308888		4.16965170		 0.00045453		-0.00016253		 0.00031115	
Mg		4.55471255		3.51190950		1.62515217		 0.00045453		 0.00016253		 0.00031115	
Mg		0.09802041		2.28417622		1.09681264		-0.00008606		 0.00028455		-0.00014367	
Mg		0.19980042		6.41082397		3.64131308		-0.00008606		-0.00028455		-0.00014367	
Mg		4.63172761		6.63167587		1.63280619		 0.00032759		 0.00018798		-0.00009528	
Mg		4.73350763		2.06332432		4.17730572		 0.00032759		-0.00018798		-0.00009528	
