# total energy = -24713.2720077 eV	

CRYSTAL	
PRIMVEC	
		9.03900142		0.00000000		1.08467799	
		0.00000000		8.69500341		0.00000000	
		0.61067703		0.00000000		5.08899648	
PRIMCOORD
   40 1	
O		1.12968832		0.75124773		0.43098801		-0.00016104		-0.00012854		-0.00017813	
O		1.43502775		7.94375114		2.97548807		-0.00016104		 0.00012854		-0.00017813	
O		5.88258985		5.09874761		2.91834412		-0.00040630		 0.00001950		-0.00005910	
O		6.18793018		3.59625216		5.46284418		-0.00040630		-0.00001950		-0.00005910	
O		3.47128728		2.13897006		0.94621392		 0.00000745		-0.00009472		 0.00009582	
O		3.77662670		6.55602972		3.49071398		 0.00000745		 0.00009472		 0.00009582	
O		8.16715137		6.48646994		2.95825721		-0.00005805		-0.00030794		 0.00033020	
O		8.47249080		2.20852983		5.50275819		-0.00005805		 0.00030794		 0.00033020	
O		3.40270162		8.35502476		1.79266332		 0.00046320		-0.00003270		-0.00000548	
O		3.70804195		0.33997410		4.33716338		 0.00046320		 0.00003270		-0.00000548	
O		7.89044628		4.00752487		2.07037529		 0.00009411		-0.00029587		-0.00027185	
O		8.19578571		4.68747399		4.61487535		 0.00009411		 0.00029587		-0.00027185	
O		8.47426423		7.90114604		5.40616727		 0.00045215		 0.00054555		-0.00045461	
O		8.16892389		0.79385374		2.86166721		 0.00045215		-0.00054555		-0.00045461	
O		3.80197182		3.55364615		3.59055861		 0.00003768		-0.00072343		 0.00017713	
O		3.49663239		5.14135271		1.04605855		 0.00003768		 0.00072343		 0.00017713	
O		6.20229332		6.61080757		5.55284483		 0.00000082		-0.00039588		-0.00037652	
O		5.89695299		2.08419220		3.00834477		 0.00000082		 0.00039588		-0.00037652	
O		1.42789579		2.26330768		2.88635593		-0.00044397		 0.00073097		-0.00004407	
O		1.12255637		6.43169118		0.34185587		-0.00044397		-0.00073097		-0.00004407	
O		6.18613308		8.27503106		3.56217281		-0.00004195		 0.00017141		 0.00014768	
O		5.88079275		0.41996871		1.01767275		-0.00004195		-0.00017141		 0.00014768	
O		1.89600474		3.92753118		4.93126139		-0.00048408		-0.00009017		 0.00020162	
O		1.59066531		4.76746859		2.38676133		-0.00048408		 0.00009017		 0.00020162	
Si		2.72364194		0.77124615		0.66991213		-0.00026993		-0.00037030		 0.00041177	
Si		3.02898228		7.92375271		3.21441219		-0.00026993		 0.00037030		 0.00041177	
Si		7.46493971		5.11874604		3.06057718		-0.00011030		 0.00050922		-0.00000136	
Si		7.77028004		3.57625283		5.60507725		-0.00011030		-0.00050922		-0.00000136	
Si		6.87087993		7.91592704		5.14805497		 0.00082975		 0.00054793		-0.00016837	
Si		6.56553960		0.77907182		2.60355490		 0.00082975		-0.00054793		-0.00016837	
Si		2.21458844		3.56842807		3.46577854		 0.00017080		 0.00080745		-0.00011933	
Si		1.90924811		5.12657170		0.92127939		 0.00017080		-0.00080745		-0.00011933	
Mg		9.45364893		0.83558942		4.72569286		-0.00031763		 0.00055434		 0.00009745	
Mg		9.14830859		7.85941036		2.18119188		-0.00031763		-0.00055434		 0.00009745	
Mg		4.97567542		5.18308930		4.52940388		 0.00054077		 0.00018729		-0.00031897	
Mg		4.67033509		3.51190956		1.98490381		 0.00054077		-0.00018729		-0.00031897	
Mg		0.18559105		2.28417643		1.10115231		-0.00046016		 0.00004648		 0.00004986	
Mg		0.49093138		6.41082425		3.64565237		-0.00046016		-0.00004648		 0.00004986	
Mg		4.74771597		6.63167632		1.99870434		 0.00015671		-0.00025160		 0.00048623	
Mg		5.05305631		2.06332436		4.54320440		 0.00015671		 0.00025160		 0.00048623	
