# total energy = -4139.21200095 eV	

CRYSTAL	
PRIMVEC	
		3.30778719		0.00000000		0.00000000	
		-1.65389360		2.86462971		0.00000000	
		0.00000000		0.00000000		5.23202624	
PRIMCOORD
   4 1	
Mg		0.00000000		1.90975226		0.01130006		0.00000000		0.00000000		 0.00004082	
Mg		1.65389293		0.95487613		2.62731219		0.00000000		-0.00000000		 0.00004082	
O		0.00000000		1.90975226		2.10557822		0.00000000		0.00000000		-0.00004082	
O		1.65389293		0.95487613		4.72159134		0.00000000		0.00000000		-0.00004082	
