# total energy = -4139.10034179 eV	

CRYSTAL	
PRIMVEC	
		3.30778719		0.00000000		0.00000000	
		-1.65389360		2.86462971		0.00000000	
		0.00000000		0.00000000		5.48116877	
PRIMCOORD
   4 1	
Mg		0.00000000		1.90975226		0.01183791		-0.00000000		0.00000000		 0.00005257	
Mg		1.65389293		0.95487613		2.75242328		0.00000000		0.00000000		 0.00005257	
O		0.00000000		1.90975226		2.20584321		0.00000000		-0.00000000		-0.00005257	
O		1.65389293		0.95487613		4.94642825		0.00000000		0.00000000		-0.00005257	
