# total energy = -4139.14687847 eV	

CRYSTAL	
PRIMVEC	
		3.30778719		0.00000000		0.00000000	
		-1.65389360		2.86462971		0.00000000	
		0.00000000		0.00000000		4.60916660	
PRIMCOORD
   4 1	
Mg		0.00000000		1.90975226		0.00995512		-0.00000000		-0.00000000		-0.00006045	
Mg		1.65389293		0.95487613		2.31453709		0.00000000		0.00000000		-0.00006045	
O		0.00000000		1.90975226		1.85491411		-0.00000000		0.00000000		 0.00006045	
O		1.65389293		0.95487613		4.15949608		0.00000000		0.00000000		 0.00006045	
