# total energy = -4139.16934353 eV	

CRYSTAL	
PRIMVEC	
		3.30778719		0.00000000		0.00000000	
		-1.65389360		2.86462971		0.00000000	
		0.00000000		0.00000000		5.35659750	
PRIMCOORD
   4 1	
Mg		0.00000000		1.90975226		0.01156899		0.00000000		0.00000000		 0.00017579	
Mg		1.65389293		0.95487613		2.68986807		0.00000000		0.00000000		 0.00017579	
O		0.00000000		1.90975226		2.15571104		0.00000000		0.00000000		-0.00017579	
O		1.65389293		0.95487613		4.83400913		-0.00000000		-0.00000000		-0.00017579	
