# total energy = -4139.17627278 eV	

CRYSTAL	
PRIMVEC	
		3.30778719		0.00000000		0.00000000	
		-1.65389360		2.86462971		0.00000000	
		0.00000000		0.00000000		4.73373786	
PRIMCOORD
   4 1	
Mg		0.00000000		1.90975226		0.01022404		0.00000000		0.00000000		-0.00020507	
Mg		1.65389293		0.95487613		2.37709198		0.00000000		0.00000000		-0.00020507	
O		0.00000000		1.90975226		1.90504627		0.00000000		0.00000000		 0.00020507	
O		1.65389293		0.95487613		4.27191520		0.00000000		0.00000000		 0.00020507	
