# total energy = -4139.20619852 eV	

CRYSTAL	
PRIMVEC	
		3.30778719		0.00000000		0.00000000	
		-1.65389360		2.86462971		0.00000000	
		0.00000000		0.00000000		4.85830913	
PRIMCOORD
   4 1	
Mg		0.00000000		1.90975226		0.01049296		-0.00000000		-0.00000000		-0.00005138	
Mg		1.65389293		0.95487613		2.43964720		0.00000000		-0.00000000		-0.00005138	
O		0.00000000		1.90975226		1.95517909		0.00000000		0.00000000		 0.00005138	
O		1.65389293		0.95487613		4.38433432		0.00000000		0.00000000		 0.00005138	
