# total energy = -41271.7230108 eV	

CRYSTAL	
PRIMVEC	
		5.69829968		0.00000000		0.00000000	
		0.00000000		11.43799751		0.00000000	
		0.00000000		0.00000000		7.63735699	
PRIMCOORD
   56 1	
Mg		0.00000000		0.00000000		0.00000000		0.00000000		0.00000000		0.00000000	
Mg		0.00000000		5.71899990		0.00000000		0.00000000		0.00000000		0.00000000	
Mg		2.84914984		5.71899990		3.81867792		0.00000000		0.00000000		0.00000000	
Mg		2.84914984		0.00000000		3.81867792		0.00000000		0.00000000		0.00000000	
Mg		0.00000000		2.85949966		7.40899763		0.00000000		-0.00000001		 0.00022421	
Mg		0.00000000		8.57849956		0.22835708		0.00000000		 0.00000001		-0.00022421	
Mg		2.84914984		8.57849956		3.59032084		0.00000000		-0.00000000		 0.00022419	
Mg		2.84914984		2.85949966		4.04703500		0.00000000		0.00000000		-0.00022419	
Mg		1.42457492		1.45948897		1.90933896		0.00000000		 0.00041716		 0.00000001	
Mg		4.27372476		9.97851025		5.72801689		-0.00000000		-0.00041716		-0.00000001	
Mg		4.27372476		4.25951092		1.90933896		-0.00000001		-0.00041718		0.00000000	
Mg		1.42457492		7.17848887		5.72801689		 0.00000001		 0.00041718		-0.00000000	
Mg		4.27372476		7.17848887		5.72801689		-0.00000001		 0.00041718		-0.00000000	
Mg		1.42457492		4.25951092		1.90933896		 0.00000001		-0.00041718		0.00000000	
Mg		1.42457492		9.97851025		5.72801689		0.00000000		-0.00041716		-0.00000001	
Mg		4.27372476		1.45948897		1.90933896		-0.00000000		 0.00041716		 0.00000001	
Si		0.00000000		1.37027183		4.71072053		0.00000000		-0.00023079		 0.00041378	
Si		0.00000000		10.06772739		2.92663361		0.00000000		 0.00023079		-0.00041378	
Si		0.00000000		4.34872692		4.71072053		0.00000000		 0.00023104		 0.00041387	
Si		0.00000000		7.08927173		2.92663361		0.00000000		-0.00023104		-0.00041387	
Si		2.84914984		7.08927173		0.89204317		0.00000000		-0.00023099		 0.00041388	
Si		2.84914984		4.34872692		6.74531154		0.00000000		 0.00023099		-0.00041388	
Si		2.84914984		10.06772739		0.89204317		0.00000000		 0.00023067		 0.00041372	
Si		2.84914984		1.37027183		6.74531154		0.00000000		-0.00023067		-0.00041372	
O		0.00000000		2.85949966		1.65425116		0.00000000		-0.00000001		 0.00014363	
O		0.00000000		8.57849956		5.98310355		0.00000000		 0.00000001		-0.00014363	
O		2.84914984		8.57849956		5.47292851		-0.00000000		 0.00000002		 0.00014368	
O		2.84914984		2.85949966		2.16442677		-0.00000000		-0.00000002		-0.00014368	
O		0.00000000		2.85949966		5.47140194		0.00000000		-0.00000013		 0.00046539	
O		0.00000000		8.57849956		2.16595391		0.00000000		 0.00000013		-0.00046539	
O		2.84914984		8.57849956		1.65272401		0.00000000		 0.00000014		 0.00046534	
O		2.84914984		2.85949966		5.98463070		0.00000000		-0.00000014		-0.00046534	
O		0.00000000		11.32361953		1.95363583		0.00000000		-0.00010692		-0.00068658	
O		0.00000000		0.11438026		5.68371944		0.00000000		 0.00010692		 0.00068658	
O		0.00000000		5.83337959		1.95363583		0.00000000		 0.00010700		-0.00068648	
O		0.00000000		5.60461964		5.68371944		0.00000000		-0.00010700		 0.00068648	
O		2.84914984		5.60461964		5.77231262		0.00000000		-0.00010700		-0.00068652	
O		2.84914984		5.83337959		1.86504209		0.00000000		 0.00010700		 0.00068652	
O		2.84914984		0.11438026		5.77231262		0.00000000		 0.00010682		-0.00068663	
O		2.84914984		11.32361953		1.86504209		0.00000000		-0.00010682		 0.00068663	
O		1.49010480		1.40115491		7.58007483		 0.00012410		 0.00009831		-0.00025329	
O		4.20819375		10.03684431		0.05727988		-0.00012410		-0.00009831		 0.00025329	
O		4.20819375		4.31784499		7.58007483		-0.00012402		-0.00009837		-0.00025325	
O		1.49010480		7.12015481		0.05727988		 0.00012402		 0.00009837		 0.00025325	
O		4.20819375		7.12015481		0.05727988		-0.00012402		 0.00009837		 0.00025325	
O		1.49010480		4.31784499		7.58007483		 0.00012402		-0.00009837		-0.00025325	
O		1.49010480		10.03684431		0.05727988		 0.00012410		-0.00009831		 0.00025329	
O		4.20819375		1.40115491		7.58007483		-0.00012410		 0.00009831		-0.00025329	
O		4.33925464		7.12015481		3.76139805		 0.00012406		 0.00009837		-0.00025327	
O		1.35904504		4.31784499		3.87595780		-0.00012406		-0.00009837		 0.00025327	
O		1.35904504		10.03684431		3.76139805		-0.00012407		-0.00009832		-0.00025326	
O		4.33925464		1.40115491		3.87595780		 0.00012407		 0.00009832		 0.00025326	
O		1.35904504		1.40115491		3.87595780		-0.00012407		 0.00009832		 0.00025326	
O		4.33925464		10.03684431		3.76139805		 0.00012407		-0.00009832		-0.00025326	
O		4.33925464		4.31784499		3.87595780		 0.00012406		-0.00009837		 0.00025327	
O		1.35904504		7.12015481		3.76139805		-0.00012406		 0.00009837		-0.00025327	
