# total energy = -41273.2194522 eV	

CRYSTAL	
PRIMVEC	
		5.69829968		0.00000000		0.00000000	
		0.00000000		11.43799751		0.00000000	
		0.00000000		0.00000000		9.08225774	
PRIMCOORD
   56 1	
Mg		0.00000000		0.00000000		0.00000000		0.00000000		0.00000000		0.00000000	
Mg		0.00000000		5.71899990		0.00000000		0.00000000		0.00000000		0.00000000	
Mg		2.84914984		5.71899990		4.54113001		0.00000000		0.00000000		0.00000000	
Mg		2.84914984		0.00000000		4.54113001		0.00000000		0.00000000		0.00000000	
Mg		0.00000000		2.85949966		8.81070071		0.00000000		 0.00000001		-0.00049004	
Mg		0.00000000		8.57849956		0.27155988		0.00000000		-0.00000001		 0.00049004	
Mg		2.84914984		8.57849956		4.26956956		0.00000000		 0.00000001		-0.00049002	
Mg		2.84914984		2.85949966		4.81268989		0.00000000		-0.00000001		 0.00049002	
Mg		1.42457492		1.45948897		2.27056501		-0.00000001		-0.00005942		0.00000000	
Mg		4.27372476		9.97851025		6.81169445		 0.00000001		 0.00005942		-0.00000000	
Mg		4.27372476		4.25951092		2.27056501		0.00000000		 0.00005942		-0.00000001	
Mg		1.42457492		7.17848887		6.81169445		-0.00000000		-0.00005942		 0.00000001	
Mg		4.27372476		7.17848887		6.81169445		0.00000000		-0.00005942		 0.00000001	
Mg		1.42457492		4.25951092		2.27056501		-0.00000000		 0.00005942		-0.00000001	
Mg		1.42457492		9.97851025		6.81169445		-0.00000001		 0.00005942		-0.00000000	
Mg		4.27372476		1.45948897		2.27056501		 0.00000001		-0.00005942		0.00000000	
Si		0.00000000		1.37027183		5.60193745		-0.00000000		 0.00053154		 0.00021239	
Si		0.00000000		10.06772739		3.48032201		-0.00000000		-0.00053154		-0.00021239	
Si		0.00000000		4.34872692		5.60193745		0.00000000		-0.00053153		 0.00021242	
Si		0.00000000		7.08927173		3.48032201		0.00000000		 0.00053153		-0.00021242	
Si		2.84914984		7.08927173		1.06080801		0.00000000		 0.00053152		 0.00021241	
Si		2.84914984		4.34872692		8.02145145		0.00000000		-0.00053152		-0.00021241	
Si		2.84914984		10.06772739		1.06080801		0.00000000		-0.00053153		 0.00021241	
Si		2.84914984		1.37027183		8.02145145		0.00000000		 0.00053153		-0.00021241	
O		0.00000000		2.85949966		1.96721773		0.00000000		0.00000000		 0.00058259	
O		0.00000000		8.57849956		7.11504286		0.00000000		-0.00000000		-0.00058259	
O		2.84914984		8.57849956		6.50834774		0.00000000		-0.00000001		 0.00058260	
O		2.84914984		2.85949966		2.57391285		0.00000000		 0.00000001		-0.00058260	
O		0.00000000		2.85949966		6.50653170		0.00000000		0.00000000		-0.00068559	
O		0.00000000		8.57849956		2.57572890		0.00000000		-0.00000000		 0.00068559	
O		2.84914984		8.57849956		1.96540111		0.00000000		-0.00000001		-0.00068555	
O		2.84914984		2.85949966		7.11685834		0.00000000		 0.00000001		 0.00068555	
O		0.00000000		11.32361953		2.32324180		0.00000000		 0.00007293		 0.00058122	
O		0.00000000		0.11438026		6.75901766		0.00000000		-0.00007293		-0.00058122	
O		0.00000000		5.83337959		2.32324180		0.00000000		-0.00007295		 0.00058125	
O		0.00000000		5.60461964		6.75901766		0.00000000		 0.00007295		-0.00058125	
O		2.84914984		5.60461964		6.86437238		-0.00000000		 0.00007296		 0.00058122	
O		2.84914984		5.83337959		2.21788764		-0.00000000		-0.00007296		-0.00058122	
O		2.84914984		0.11438026		6.86437238		-0.00000000		-0.00007292		 0.00058123	
O		2.84914984		11.32361953		2.21788764		-0.00000000		 0.00007292		-0.00058123	
O		1.49010480		1.40115491		9.01414369		 0.00049632		 0.00034095		-0.00006274	
O		4.20819375		10.03684431		0.06811690		-0.00049632		-0.00034095		 0.00006274	
O		4.20819375		4.31784499		9.01414369		-0.00049632		-0.00034096		-0.00006274	
O		1.49010480		7.12015481		0.06811690		 0.00049632		 0.00034096		 0.00006274	
O		4.20819375		7.12015481		0.06811690		-0.00049632		 0.00034096		 0.00006274	
O		1.49010480		4.31784499		9.01414369		 0.00049632		-0.00034096		-0.00006274	
O		1.49010480		10.03684431		0.06811690		 0.00049632		-0.00034095		 0.00006274	
O		4.20819375		1.40115491		9.01414369		-0.00049632		 0.00034095		-0.00006274	
O		4.33925464		7.12015481		4.47301254		 0.00049634		 0.00034096		-0.00006273	
O		1.35904504		4.31784499		4.60924692		-0.00049634		-0.00034096		 0.00006273	
O		1.35904504		10.03684431		4.47301254		-0.00049632		-0.00034095		-0.00006272	
O		4.33925464		1.40115491		4.60924692		 0.00049632		 0.00034095		 0.00006272	
O		1.35904504		1.40115491		4.60924692		-0.00049632		 0.00034095		 0.00006272	
O		4.33925464		10.03684431		4.47301254		 0.00049632		-0.00034095		-0.00006272	
O		4.33925464		4.31784499		4.60924692		 0.00049634		-0.00034096		 0.00006273	
O		1.35904504		7.12015481		4.47301254		-0.00049634		 0.00034096		-0.00006273	
