# total energy = -41275.4414984 eV	

CRYSTAL	
PRIMVEC	
		5.69829968		0.00000000		0.00000000	
		0.00000000		11.43799751		0.00000000	
		0.00000000		0.00000000		8.46301212	
PRIMCOORD
   56 1	
Mg		0.00000000		0.00000000		0.00000000		0.00000000		0.00000000		0.00000000	
Mg		0.00000000		5.71899990		0.00000000		0.00000000		0.00000000		0.00000000	
Mg		2.84914984		5.71899990		4.23150777		0.00000000		0.00000000		0.00000000	
Mg		2.84914984		0.00000000		4.23150777		0.00000000		0.00000000		0.00000000	
Mg		0.00000000		2.85949966		8.20997058		0.00000000		-0.00000001		 0.00056507	
Mg		0.00000000		8.57849956		0.25304382		0.00000000		 0.00000001		-0.00056507	
Mg		2.84914984		8.57849956		3.97846281		0.00000000		-0.00000000		 0.00056511	
Mg		2.84914984		2.85949966		4.48455159		0.00000000		0.00000000		-0.00056511	
Mg		1.42457492		1.45948897		2.11575360		-0.00000002		 0.00000574		 0.00000005	
Mg		4.27372476		9.97851025		6.34726137		 0.00000002		-0.00000574		-0.00000005	
Mg		4.27372476		4.25951092		2.11575360		 0.00000002		-0.00000573		 0.00000004	
Mg		1.42457492		7.17848887		6.34726137		-0.00000002		 0.00000573		-0.00000004	
Mg		4.27372476		7.17848887		6.34726137		 0.00000002		 0.00000573		-0.00000004	
Mg		1.42457492		4.25951092		2.11575360		-0.00000002		-0.00000573		 0.00000004	
Mg		1.42457492		9.97851025		6.34726137		-0.00000002		-0.00000574		-0.00000005	
Mg		4.27372476		1.45948897		2.11575360		 0.00000002		 0.00000574		 0.00000005	
Si		0.00000000		1.37027183		5.21998783		0.00000000		 0.00071287		 0.00025237	
Si		0.00000000		10.06772739		3.24302657		0.00000000		-0.00071287		-0.00025237	
Si		0.00000000		4.34872692		5.21998783		0.00000000		-0.00071288		 0.00025233	
Si		0.00000000		7.08927173		3.24302657		0.00000000		 0.00071288		-0.00025233	
Si		2.84914984		7.08927173		0.98848006		0.00000000		 0.00071289		 0.00025232	
Si		2.84914984		4.34872692		7.47453434		0.00000000		-0.00071289		-0.00025232	
Si		2.84914984		10.06772739		0.98848006		0.00000000		-0.00071291		 0.00025232	
Si		2.84914984		1.37027183		7.47453434		0.00000000		 0.00071291		-0.00025232	
O		0.00000000		2.85949966		1.83308887		-0.00000000		-0.00000002		-0.00092681	
O		0.00000000		8.57849956		6.62992553		-0.00000000		 0.00000002		 0.00092681	
O		2.84914984		8.57849956		6.06459664		0.00000000		-0.00000001		-0.00092678	
O		2.84914984		2.85949966		2.39841890		0.00000000		 0.00000001		 0.00092678	
O		0.00000000		2.85949966		6.06290368		0.00000000		 0.00000004		-0.00017951	
O		0.00000000		8.57849956		2.40011072		0.00000000		-0.00000004		 0.00017951	
O		2.84914984		8.57849956		1.83139705		0.00000000		-0.00000003		-0.00017955	
O		2.84914984		2.85949966		6.63161849		0.00000000		 0.00000003		 0.00017955	
O		0.00000000		11.32361953		2.16483875		0.00000000		-0.00047823		 0.00053184	
O		0.00000000		0.11438026		6.29817565		0.00000000		 0.00047823		-0.00053184	
O		0.00000000		5.83337959		2.16483875		0.00000000		 0.00047820		 0.00053184	
O		0.00000000		5.60461964		6.29817565		0.00000000		-0.00047820		-0.00053184	
O		2.84914984		5.60461964		6.39634652		0.00000000		-0.00047824		 0.00053181	
O		2.84914984		5.83337959		2.06666788		0.00000000		 0.00047824		-0.00053181	
O		2.84914984		0.11438026		6.39634652		0.00000000		 0.00047827		 0.00053182	
O		2.84914984		11.32361953		2.06666788		0.00000000		-0.00047827		-0.00053182	
O		1.49010480		1.40115491		8.39954275		 0.00057065		-0.00009561		-0.00014572	
O		4.20819375		10.03684431		0.06347279		-0.00057065		 0.00009561		 0.00014572	
O		4.20819375		4.31784499		8.39954275		-0.00057065		 0.00009564		-0.00014573	
O		1.49010480		7.12015481		0.06347279		 0.00057065		-0.00009564		 0.00014573	
O		4.20819375		7.12015481		0.06347279		-0.00057065		-0.00009564		 0.00014573	
O		1.49010480		4.31784499		8.39954275		 0.00057065		 0.00009564		-0.00014573	
O		1.49010480		10.03684431		0.06347279		 0.00057065		 0.00009561		 0.00014572	
O		4.20819375		1.40115491		8.39954275		-0.00057065		-0.00009561		-0.00014572	
O		4.33925464		7.12015481		4.16803498		 0.00057059		-0.00009563		-0.00014565	
O		1.35904504		4.31784499		4.29497999		-0.00057059		 0.00009563		 0.00014565	
O		1.35904504		10.03684431		4.16803498		-0.00057057		 0.00009561		-0.00014565	
O		4.33925464		1.40115491		4.29497999		 0.00057057		-0.00009561		 0.00014565	
O		1.35904504		1.40115491		4.29497999		-0.00057057		-0.00009561		 0.00014565	
O		4.33925464		10.03684431		4.16803498		 0.00057057		 0.00009561		-0.00014565	
O		4.33925464		4.31784499		4.29497999		 0.00057059		 0.00009563		 0.00014565	
O		1.35904504		7.12015481		4.16803498		-0.00057059		-0.00009563		-0.00014565	
