# total energy = -41274.2036018 eV	

CRYSTAL	
PRIMVEC	
		5.69829968		0.00000000		0.00000000	
		0.00000000		11.43799751		0.00000000	
		0.00000000		0.00000000		8.87584254	
PRIMCOORD
   56 1	
Mg		0.00000000		0.00000000		0.00000000		0.00000000		0.00000000		0.00000000	
Mg		0.00000000		5.71899990		0.00000000		0.00000000		0.00000000		0.00000000	
Mg		2.84914984		5.71899990		4.43792298		0.00000000		0.00000000		0.00000000	
Mg		2.84914984		0.00000000		4.43792298		0.00000000		0.00000000		0.00000000	
Mg		0.00000000		2.85949966		8.61045733		0.00000000		0.00000000		-0.00058448	
Mg		0.00000000		8.57849956		0.26538805		0.00000000		-0.00000000		 0.00058448	
Mg		2.84914984		8.57849956		4.17253493		0.00000000		-0.00000001		-0.00058447	
Mg		2.84914984		2.85949966		4.70331046		0.00000000		 0.00000001		 0.00058447	
Mg		1.42457492		1.45948897		2.21896063		0.00000000		 0.00034906		 0.00000001	
Mg		4.27372476		9.97851025		6.65688361		-0.00000000		-0.00034906		-0.00000001	
Mg		4.27372476		4.25951092		2.21896063		0.00000000		-0.00034905		 0.00000001	
Mg		1.42457492		7.17848887		6.65688361		-0.00000000		 0.00034905		-0.00000001	
Mg		4.27372476		7.17848887		6.65688361		0.00000000		 0.00034905		-0.00000001	
Mg		1.42457492		4.25951092		2.21896063		-0.00000000		-0.00034905		 0.00000001	
Mg		1.42457492		9.97851025		6.65688361		0.00000000		-0.00034906		-0.00000001	
Mg		4.27372476		1.45948897		2.21896063		-0.00000000		 0.00034906		 0.00000001	
Si		0.00000000		1.37027183		5.47462148		0.00000000		 0.00017219		 0.00036526	
Si		0.00000000		10.06772739		3.40122391		0.00000000		-0.00017219		-0.00036526	
Si		0.00000000		4.34872692		5.47462148		-0.00000000		-0.00017217		 0.00036526	
Si		0.00000000		7.08927173		3.40122391		-0.00000000		 0.00017217		-0.00036526	
Si		2.84914984		7.08927173		1.03669907		-0.00000000		 0.00017218		 0.00036525	
Si		2.84914984		4.34872692		7.83914632		-0.00000000		-0.00017218		-0.00036525	
Si		2.84914984		10.06772739		1.03669907		0.00000000		-0.00017221		 0.00036523	
Si		2.84914984		1.37027183		7.83914632		0.00000000		 0.00017221		-0.00036523	
O		0.00000000		2.85949966		1.92250773		-0.00000000		 0.00000001		 0.00037932	
O		0.00000000		8.57849956		6.95333651		-0.00000000		-0.00000001		-0.00037932	
O		2.84914984		8.57849956		6.36043071		0.00000000		-0.00000000		 0.00037935	
O		2.84914984		2.85949966		2.51541468		0.00000000		0.00000000		-0.00037935	
O		0.00000000		2.85949966		6.35865569		0.00000000		0.00000000		-0.00076942	
O		0.00000000		8.57849956		2.51718970		0.00000000		-0.00000000		 0.00076942	
O		2.84914984		8.57849956		1.92073271		-0.00000000		-0.00000001		-0.00076938	
O		2.84914984		2.85949966		6.95511153		-0.00000000		 0.00000001		 0.00076938	
O		0.00000000		11.32361953		2.27044078		0.00000000		 0.00032798		 0.00079518	
O		0.00000000		0.11438026		6.60540346		0.00000000		-0.00032798		-0.00079518	
O		0.00000000		5.83337959		2.27044078		-0.00000000		-0.00032798		 0.00079519	
O		0.00000000		5.60461964		6.60540346		-0.00000000		 0.00032798		-0.00079519	
O		2.84914984		5.60461964		6.70836376		-0.00000000		 0.00032799		 0.00079513	
O		2.84914984		5.83337959		2.16748106		-0.00000000		-0.00032799		-0.00079513	
O		2.84914984		0.11438026		6.70836376		0.00000000		-0.00032799		 0.00079513	
O		2.84914984		11.32361953		2.16748106		0.00000000		 0.00032799		-0.00079513	
O		1.49010480		1.40115491		8.80927671		 0.00067891		 0.00009905		-0.00009337	
O		4.20819375		10.03684431		0.06656925		-0.00067891		-0.00009905		 0.00009337	
O		4.20819375		4.31784499		8.80927671		-0.00067895		-0.00009903		-0.00009337	
O		1.49010480		7.12015481		0.06656925		 0.00067895		 0.00009903		 0.00009337	
O		4.20819375		7.12015481		0.06656925		-0.00067895		 0.00009903		 0.00009337	
O		1.49010480		4.31784499		8.80927671		 0.00067895		-0.00009903		-0.00009337	
O		1.49010480		10.03684431		0.06656925		 0.00067891		-0.00009905		 0.00009337	
O		4.20819375		1.40115491		8.80927671		-0.00067891		 0.00009905		-0.00009337	
O		4.33925464		7.12015481		4.37135373		 0.00067896		 0.00009904		-0.00009337	
O		1.35904504		4.31784499		4.50449051		-0.00067896		-0.00009904		 0.00009337	
O		1.35904504		10.03684431		4.37135373		-0.00067893		-0.00009906		-0.00009336	
O		4.33925464		1.40115491		4.50449051		 0.00067893		 0.00009906		 0.00009336	
O		1.35904504		1.40115491		4.50449051		-0.00067893		 0.00009906		 0.00009336	
O		4.33925464		10.03684431		4.37135373		 0.00067893		-0.00009906		-0.00009336	
O		4.33925464		4.31784499		4.50449051		 0.00067896		-0.00009904		 0.00009337	
O		1.35904504		7.12015481		4.37135373		-0.00067896		 0.00009904		-0.00009337	
