# total energy = -41268.9637031 eV	

CRYSTAL	
PRIMVEC	
		5.69829968		0.00000000		0.00000000	
		0.00000000		11.43799751		0.00000000	
		0.00000000		0.00000000		7.43094178	
PRIMCOORD
   56 1	
Mg		0.00000000		0.00000000		0.00000000		0.00000000		0.00000000		0.00000000	
Mg		0.00000000		5.71899990		0.00000000		0.00000000		0.00000000		0.00000000	
Mg		2.84914984		5.71899990		3.71546975		0.00000000		0.00000000		0.00000000	
Mg		2.84914984		0.00000000		3.71546975		0.00000000		0.00000000		0.00000000	
Mg		0.00000000		2.85949966		7.20875482		0.00000000		-0.00000006		 0.00017627	
Mg		0.00000000		8.57849956		0.22218525		0.00000000		 0.00000006		-0.00017627	
Mg		2.84914984		8.57849956		3.49328507		0.00000000		 0.00000005		 0.00017627	
Mg		2.84914984		2.85949966		3.93765500		0.00000000		-0.00000005		-0.00017627	
Mg		1.42457492		1.45948897		1.85773516		-0.00000001		 0.00063634		 0.00000001	
Mg		4.27372476		9.97851025		5.57320491		 0.00000001		-0.00063634		-0.00000001	
Mg		4.27372476		4.25951092		1.85773516		 0.00000001		-0.00063643		0.00000000	
Mg		1.42457492		7.17848887		5.57320491		-0.00000001		 0.00063643		-0.00000000	
Mg		4.27372476		7.17848887		5.57320491		 0.00000001		 0.00063643		-0.00000000	
Mg		1.42457492		4.25951092		1.85773516		-0.00000001		-0.00063643		0.00000000	
Mg		1.42457492		9.97851025		5.57320491		-0.00000001		-0.00063634		-0.00000001	
Mg		4.27372476		1.45948897		1.85773516		 0.00000001		 0.00063634		 0.00000001	
Si		0.00000000		1.37027183		4.58340399		0.00000000		-0.00009395		 0.00072707	
Si		0.00000000		10.06772739		2.84753608		0.00000000		 0.00009395		-0.00072707	
Si		0.00000000		4.34872692		4.58340399		0.00000000		 0.00009347		 0.00072698	
Si		0.00000000		7.08927173		2.84753608		0.00000000		-0.00009347		-0.00072698	
Si		2.84914984		7.08927173		0.86793367		0.00000000		-0.00009341		 0.00072690	
Si		2.84914984		4.34872692		6.56300583		0.00000000		 0.00009341		-0.00072690	
Si		2.84914984		10.06772739		0.86793367		-0.00000000		 0.00009383		 0.00072696	
Si		2.84914984		1.37027183		6.56300583		-0.00000000		-0.00009383		-0.00072696	
O		0.00000000		2.85949966		1.60954173		0.00000000		 0.00000006		 0.00051153	
O		0.00000000		8.57849956		5.82139891		0.00000000		-0.00000006		-0.00051153	
O		2.84914984		8.57849956		5.32501148		0.00000000		-0.00000007		 0.00051154	
O		2.84914984		2.85949966		2.10592802		0.00000000		 0.00000007		-0.00051154	
O		0.00000000		2.85949966		5.32352593		0.00000000		 0.00000026		 0.00011327	
O		0.00000000		8.57849956		2.10741414		0.00000000		-0.00000026		-0.00011327	
O		2.84914984		8.57849956		1.60805618		0.00000000		-0.00000025		 0.00011329	
O		2.84914984		2.85949966		5.82288446		0.00000000		 0.00000025		-0.00011329	
O		0.00000000		11.32361953		1.90083482		0.00000000		-0.00003772		-0.00077330	
O		0.00000000		0.11438026		5.53010582		0.00000000		 0.00003772		 0.00077330	
O		0.00000000		5.83337959		1.90083482		0.00000000		 0.00003751		-0.00077342	
O		0.00000000		5.60461964		5.53010582		0.00000000		-0.00003751		 0.00077342	
O		2.84914984		5.60461964		5.61630457		0.00000000		-0.00003743		-0.00077349	
O		2.84914984		5.83337959		1.81463607		0.00000000		 0.00003743		 0.00077349	
O		2.84914984		0.11438026		5.61630457		0.00000000		 0.00003760		-0.00077337	
O		2.84914984		11.32361953		1.81463607		0.00000000		-0.00003760		 0.00077337	
O		1.49010480		1.40115491		7.37520785		 0.00022256		 0.00008805		-0.00036078	
O		4.20819375		10.03684431		0.05573222		-0.00022256		-0.00008805		 0.00036078	
O		4.20819375		4.31784499		7.37520785		-0.00022255		-0.00008798		-0.00036081	
O		1.49010480		7.12015481		0.05573222		 0.00022255		 0.00008798		 0.00036081	
O		4.20819375		7.12015481		0.05573222		-0.00022255		 0.00008798		 0.00036081	
O		1.49010480		4.31784499		7.37520785		 0.00022255		-0.00008798		-0.00036081	
O		1.49010480		10.03684431		0.05573222		 0.00022256		-0.00008805		 0.00036078	
O		4.20819375		1.40115491		7.37520785		-0.00022256		 0.00008805		-0.00036078	
O		4.33925464		7.12015481		3.65973753		 0.00022252		 0.00008800		-0.00036080	
O		1.35904504		4.31784499		3.77120197		-0.00022252		-0.00008800		 0.00036080	
O		1.35904504		10.03684431		3.65973753		-0.00022250		-0.00008805		-0.00036076	
O		4.33925464		1.40115491		3.77120197		 0.00022250		 0.00008805		 0.00036076	
O		1.35904504		1.40115491		3.77120197		-0.00022250		 0.00008805		 0.00036076	
O		4.33925464		10.03684431		3.65973753		 0.00022250		-0.00008805		-0.00036076	
O		4.33925464		4.31784499		3.77120197		 0.00022252		-0.00008800		 0.00036080	
O		1.35904504		7.12015481		3.65973753		-0.00022252		 0.00008800		-0.00036080	
