# total energy = -9139.80126866 eV

CRYSTAL
PRIMVEC
		5.33300075		-0.63995880		0.00000000
		-3.22072043		4.93849243		0.00000000
		0.00000000		0.00000000		7.32399801
PRIMECORD
   14 1
Mg		1.77428893		-0.21291514		3.33974380		-0.00023161		 0.00021009		 0.00012977
Mg		-1.07153419		1.64303682		3.33974380		 0.00036089		-0.00059653		 0.00000451
Mg		1.40952289		2.86841088		3.33974380		 0.00003388		 0.00032553		-0.00001117
Si		-0.36948093		3.07900886		0.56394795		 0.00048429		 0.00015073		 0.00015913
Si		2.48176018		1.21952476		0.56394795		 0.00028582		-0.00019869		-0.00014944
O		-0.36948093		3.07900886		2.13714280		-0.00007793		-0.00045298		 0.00001330
O		2.48176018		1.21952476		2.13714280		 0.00037785		-0.00023941		-0.00031948
O		2.67183296		-0.32062019		7.27273202		-0.00015119		-0.00006862		 0.00000666
O		-1.61358190		2.47418509		7.27273202		 0.00042175		 0.00014220		 0.00028586
O		1.05402710		2.14496819		7.27273202		 0.00018158		-0.00009136		 0.00021179
O		3.53044610		-0.42365385		4.33580802		-0.00022026		-0.00015652		-0.00049791
O		-2.13211799		3.26928307		4.33580802		-0.00070959		 0.00053138		 0.00028387
O		0.71395006		1.45290387		4.33580802		-0.00054022		-0.00024295		 0.00012135
O		0.00000000		0.00000000		2.21917215		-0.00021526		 0.00068709		-0.00023827
