# total energy = -9138.46639767 eV

CRYSTAL
PRIMVEC
		5.33300163		-0.85328264		0.00000000
		-3.40546137		5.04515355		0.00000000
		0.00000000		0.00000000		7.32400165
PRIMECORD
   14 1
Mg		1.77428899		-0.28388602		3.33974352		-0.00013620		 0.00029372		-0.00006654
Mg		-1.13299706		1.67852308		3.33974352		-0.00004269		-0.00055270		 0.00006106
Mg		1.28624617		2.79723656		3.33974352		 0.00009014		 0.00045545		-0.00008540
Si		-0.49264109		3.07900870		0.56394772		-0.00014071		 0.00049019		-0.00051506
Si		2.42017865		1.11286492		0.56394772		-0.00023921		-0.00011749		-0.00003150
O		-0.49264109		3.07900870		2.13714272		 0.00008147		 0.00028361		-0.00029952
O		2.42017865		1.11286492		2.13714272		 0.00028586		 0.00038753		 0.00021832
O		2.67183305		-0.42749303		7.27273156		-0.00048331		-0.00019647		-0.00070695
O		-1.70613699		2.52762169		7.27273156		-0.00007931		-0.00013392		 0.00055490
O		0.96184095		2.09174495		7.27273156		-0.00017770		-0.00025526		-0.00007321
O		3.53044577		-0.56487072		4.33580792		 0.00034573		-0.00005755		-0.00003787
O		-2.25441581		3.33989204		4.33580792		 0.00016214		-0.00011044		 0.00019013
O		0.65150814		1.41685283		4.33580792		 0.00021105		-0.00021940		 0.00012475
O		0.00000000		0.00000000		2.21917161		 0.00012276		-0.00026728		 0.00066690
