# total energy = -9140.75872491 eV

CRYSTAL
PRIMVEC
		5.33300036		0.21331980		0.00000000
		-2.48175876		4.51185149		0.00000000
		0.00000000		0.00000000		7.32399762
PRIMECORD
   14 1
Mg		1.77428883		0.07097175		3.33974383		 0.00130867		-0.00095668		-0.00186964
Mg		-0.82568127		1.50109399		3.33974383		-0.00058200		-0.00002809		 0.00022609
Mg		1.90263297		3.15310822		3.33974383		-0.00048077		-0.00238503		-0.00020336
Si		0.12316005		3.07900884		0.56394821		-0.00032302		-0.00033020		 0.00005010
Si		2.72807994		1.64616512		0.56394821		-0.00071199		 0.00096528		 0.00017586
O		0.12316005		3.07900884		2.13714332		-0.00045952		-0.00122760		-0.00045148
O		2.72807994		1.64616512		2.13714332		 0.00145336		 0.00161975		-0.00010026
O		2.67183318		0.10687286		7.27273213		-0.00067408		 0.00061327		 0.00091870
O		-1.24336228		2.26043894		7.27273213		-0.00089829		 0.00028262		 0.00020444
O		1.42276910		2.35786217		7.27273213		-0.00033334		 0.00107284		-0.00206008
O		3.53044591		0.14121816		4.33580821		-0.00025918		 0.00007620		-0.00065407
O		-1.64292487		2.98684709		4.33580821		 0.00132067		 0.00106003		 0.00065278
O		0.96371896		1.59710925		4.33580821		 0.00100578		-0.00070954		 0.00208521
O		0.00000000		0.00000000		2.21917227		-0.00036629		-0.00005285		 0.00102572
