# total energy = -9139.80130785 eV

CRYSTAL
PRIMVEC
		5.33300075		0.63995880		0.00000000
		-2.11228032		4.29853363		0.00000000
		0.00000000		0.00000000		7.32399801
PRIMECORD
   14 1
Mg		1.77428893		0.21291514		3.33974380		 0.00026731		-0.00014319		 0.00017105
Mg		-0.70275474		1.43012221		3.33974380		-0.00015990		-0.00060671		 0.00006882
Mg		2.14918786		3.29545669		3.33974380		 0.00020822		 0.00043942		 0.00005397
Si		0.36948093		3.07900886		0.56394795		 0.00046484		 0.00071831		-0.00030848
Si		2.85124111		1.85948518		0.56394795		 0.00025807		-0.00065779		 0.00023713
O		0.36948093		3.07900886		2.13714280		 0.00034907		 0.00035809		-0.00037566
O		2.85124111		1.85948518		2.13714280		 0.00003062		 0.00026926		 0.00022194
O		2.67183296		0.32062019		7.27273202		-0.00013291		 0.00017674		 0.00055398
O		-1.05825106		2.15356490		7.27273202		 0.00016228		 0.00009243		-0.00019500
O		1.60714015		2.46430788		7.27273202		 0.00037148		-0.00010087		 0.00010102
O		3.53044610		0.42365385		4.33580802		-0.00080673		 0.00014477		-0.00052743
O		-1.39832811		2.84562868		4.33580802		-0.00018887		-0.00015243		 0.00007611
O		1.08860405		1.66921097		4.33580802		-0.00038671		-0.00054390		 0.00004746
O		0.00000000		0.00000000		2.21917215		-0.00043677		 0.00000589		-0.00012491
