# total energy = -9140.14580835 eV

CRYSTAL
PRIMVEC
		5.33299824		0.42663879		0.00000000
		-2.29701746		4.40519463		0.00000000
		0.00000000		0.00000000		7.32399888
PRIMECORD
   14 1
Mg		1.77428878		0.14194293		3.33974364		 0.00015270		-0.00026743		-0.00001904
Mg		-0.76421817		1.46560817		3.33974364		 0.00037740		 0.00058245		 0.00002293
Mg		2.02590963		3.22428286		3.33974364		-0.00017883		 0.00001207		 0.00046942
Si		0.24632110		3.07900900		0.56394805		 0.00003463		-0.00005648		 0.00001866
Si		2.78966074		1.75282496		0.56394805		 0.00082876		 0.00018818		-0.00009537
O		0.24632110		3.07900900		2.13714281		 0.00011976		 0.00010704		-0.00028167
O		2.78966074		1.75282496		2.13714281		 0.00006657		 0.00042249		-0.00022057
O		2.67183311		0.21374686		7.27273160		-0.00088584		-0.00017197		-0.00054119
O		-1.15080604		2.20700200		7.27273160		 0.00009451		 0.00071996		 0.00022959
O		1.51495478		2.41108509		7.27273160		 0.00013823		-0.00046623		 0.00023534
O		3.53044575		0.28243600		4.33580785		-0.00086205		-0.00046997		 0.00006822
O		-1.52062689		2.91623783		4.33580785		-0.00086674		-0.00031261		 0.00025169
O		1.02616192		1.63316012		4.33580785		 0.00020125		-0.00037023		 0.00001054
O		0.00000000		0.00000000		2.21917173		 0.00077967		 0.00008274		-0.00014856
