# total energy = -24716.3204581 eV

CRYSTAL
PRIMVEC
		9.03899958		0.00000000		0.00000000
		0.00000000		8.69500237		0.00000000
		0.00000000		0.00000000		5.21622588
PRIMECORD
   40 1
O		1.09371895		0.75124753		0.30723560		 0.00001117		-0.00041106		-0.00053330
O		1.09371895		7.94375033		2.91534763		 0.00001117		 0.00041106		-0.00053330
O		5.61321874		5.09874781		2.30087734		 0.00001117		-0.00041106		 0.00053330
O		5.61321874		3.59625185		4.90898938		 0.00001117		 0.00041106		 0.00053330
O		3.40679894		2.13896988		0.55083302		 0.00031757		-0.00010869		-0.00009162
O		3.40679894		6.55602978		3.15894596		 0.00031757		 0.00010869		-0.00009162
O		7.92629783		6.48646926		2.05727902		 0.00031757		-0.00010869		 0.00009162
O		7.92629783		2.20852950		4.66539196		 0.00031757		 0.00010869		 0.00009162
O		3.23415405		8.35502481		1.43967762		 0.00020370		-0.00059847		-0.00005824
O		3.23415405		0.33997395		4.04779056		 0.00020370		 0.00059847		-0.00005824
O		7.75365384		4.00752453		1.16843351		 0.00020370		-0.00059847		 0.00005824
O		7.75365384		4.68747423		3.77654645		 0.00020370		 0.00059847		 0.00005824
O		7.93985633		7.90114591		4.56471919		 0.00027050		 0.00008589		-0.00030536
O		7.93985633		0.79385375		1.95660625		 0.00027050		-0.00008589		-0.00030536
O		3.42035744		3.55364563		3.25961872		 0.00027050		 0.00008589		 0.00030536
O		3.42035744		5.14135313		0.65150578		 0.00027050		-0.00008589		 0.00030536
O		5.61683344		6.61080793		5.00079488		-0.00062038		 0.00007233		 0.00001171
O		5.61683344		2.08419173		2.39268285		-0.00062038		-0.00007233		 0.00001171
O		1.09733455		2.26330765		2.82354303		-0.00062038		 0.00007233		-0.00001171
O		1.09733455		6.43169111		0.21543009		-0.00062038		-0.00007233		-0.00001171
O		5.84280843		8.27503057		2.93256150		 0.00009336		-0.00038655		-0.00003184
O		5.84280843		0.41996909		0.32444856		 0.00009336		 0.00038655		-0.00003184
O		1.32330863		3.92753119		4.89177551		 0.00009336		-0.00038655		 0.00003184
O		1.32330863		4.76746847		2.28366257		 0.00009336		 0.00038655		 0.00003184
Si		2.68187118		0.77124631		0.35679010		-0.00023788		-0.00007929		 0.00064978
Si		2.68187118		7.92375245		2.96490304		-0.00023788		 0.00007929		 0.00064978
Si		7.20137097		5.11874569		2.25132284		-0.00023788		-0.00007929		-0.00064978
Si		7.20137097		3.57625307		4.85943487		-0.00023788		 0.00007929		-0.00064978
Si		6.34447381		7.91592648		4.49638616		 0.00039354		-0.00008277		 0.00038511
Si		6.34447381		0.77907228		1.88827323		 0.00039354		 0.00008277		 0.00038511
Si		1.82497402		3.56842801		3.32795175		 0.00039354		-0.00008277		-0.00038511
Si		1.82497402		5.12657166		0.71983881		 0.00039354		 0.00008277		-0.00038511
Mg		9.01640118		0.83558862		3.73481701		-0.00024541		 0.00039663		-0.00062595
Mg		9.01640118		7.85940923		1.12670497		-0.00024541		-0.00039663		-0.00062595
Mg		4.49690139		5.18308891		4.08952000		-0.00024541		 0.00039663		 0.00062595
Mg		4.49690139		3.51190985		1.48140797		-0.00024541		-0.00039663		 0.00062595
Mg		0.05423400		2.28417598		1.12201011		-0.00018619		 0.00020263		 0.00016825
Mg		0.05423400		6.41082368		3.73012305		-0.00018619		-0.00020263		 0.00016825
Mg		4.57373379		6.63167536		1.48610282		-0.00018619		 0.00020263		-0.00016825
Mg		4.57373379		2.06332430		4.09421486		-0.00018619		-0.00020263		-0.00016825
