# total energy = -24714.2913205 eV

CRYSTAL
PRIMVEC
		9.03899958		0.00000000		0.00000000
		0.00000000		8.69500237		0.00000000
		0.00000000		0.00000000		4.83455412
PRIMECORD
   40 1
O		1.09371895		0.75124753		0.28475470		 0.00040120		-0.00064972		-0.00017876
O		1.09371895		7.94375033		2.70202995		 0.00040120		 0.00064972		-0.00017876
O		5.61321874		5.09874781		2.13251965		 0.00040120		-0.00064972		 0.00017876
O		5.61321874		3.59625185		4.54979490		 0.00040120		 0.00064972		 0.00017876
O		3.40679894		2.13896988		0.51052812		 0.00025375		-0.00014161		-0.00064634
O		3.40679894		6.55602978		2.92780428		 0.00025375		 0.00014161		-0.00064634
O		7.92629783		6.48646926		1.90674713		 0.00025375		-0.00014161		 0.00064634
O		7.92629783		2.20852950		4.32402148		 0.00025375		 0.00014161		 0.00064634
O		3.23415405		8.35502481		1.33433621		-0.00004476		-0.00011930		-0.00089607
O		3.23415405		0.33997395		3.75161056		-0.00004476		 0.00011930		-0.00089607
O		7.75365384		4.00752453		1.08293904		-0.00004476		-0.00011930		 0.00089607
O		7.75365384		4.68747423		3.50021339		-0.00004476		 0.00011930		 0.00089607
O		7.93985633		7.90114591		4.23071460		-0.00081826		 0.00087910		-0.00005642
O		7.93985633		0.79385375		1.81344025		-0.00081826		-0.00087910		-0.00005642
O		3.42035744		3.55364563		3.02111025		-0.00081826		 0.00087910		 0.00005642
O		3.42035744		5.14135313		0.60383500		-0.00081826		-0.00087910		 0.00005642
O		5.61683344		6.61080793		4.63488262		 0.00042461		-0.00077706		-0.00093834
O		5.61683344		2.08419173		2.21760827		 0.00042461		 0.00077706		-0.00093834
O		1.09733455		2.26330765		2.61694223		 0.00042461		-0.00077706		 0.00093834
O		1.09733455		6.43169111		0.19966698		 0.00042461		 0.00077706		 0.00093834
O		5.84280843		8.27503057		2.71798379		-0.00041126		 0.00065330		 0.00034808
O		5.84280843		0.41996909		0.30070853		-0.00041126		-0.00065330		 0.00034808
O		1.32330863		3.92753119		4.53384107		-0.00041126		 0.00065330		-0.00034808
O		1.32330863		4.76746847		2.11656581		-0.00041126		-0.00065330		-0.00034808
Si		2.68187118		0.77124631		0.33068276		-0.00033743		-0.00089782		-0.00059959
Si		2.68187118		7.92375245		2.74795801		-0.00033743		 0.00089782		-0.00059959
Si		7.20137097		5.11874569		2.08659159		-0.00033743		-0.00089782		 0.00059959
Si		7.20137097		3.57625307		4.50386684		-0.00033743		 0.00089782		 0.00059959
Si		6.34447381		7.91592648		4.16738195		-0.00014181		 0.00017167		 0.00049707
Si		6.34447381		0.77907228		1.75010669		-0.00014181		-0.00017167		 0.00049707
Si		1.82497402		3.56842801		3.08444291		-0.00014181		 0.00017167		-0.00049707
Si		1.82497402		5.12657166		0.66716766		-0.00014181		-0.00017167		-0.00049707
Mg		9.01640118		0.83558862		3.46153822		 0.00042155		 0.00010026		-0.00072901
Mg		9.01640118		7.85940923		1.04426297		 0.00042155		-0.00010026		-0.00072901
Mg		4.49690139		5.18308891		3.79028663		 0.00042155		 0.00010026		 0.00072901
Mg		4.49690139		3.51190985		1.37301229		 0.00042155		-0.00010026		 0.00072901
Mg		0.05423400		2.28417598		1.03991159		 0.00025240		 0.00053992		 0.00019819
Mg		0.05423400		6.41082368		3.45718685		 0.00025240		-0.00053992		 0.00019819
Mg		4.57373379		6.63167536		1.37736276		 0.00025240		 0.00053992		-0.00019819
Mg		4.57373379		2.06332430		3.79463891		 0.00025240		-0.00053992		-0.00019819
