# total energy = -24710.7682703 eV

CRYSTAL
PRIMVEC
		9.03899958		0.00000000		0.00000000
		0.00000000		8.69500237		0.00000000
		0.00000000		0.00000000		4.58009724
PRIMECORD
   40 1
O		1.09371895		0.75124753		0.26976804		-0.00003566		 0.00061134		 0.00012547
O		1.09371895		7.94375033		2.55981756		-0.00003566		-0.00061134		 0.00012547
O		5.61321874		5.09874781		2.02028149		-0.00003566		 0.00061134		-0.00012547
O		5.61321874		3.59625185		4.31033192		-0.00003566		-0.00061134		-0.00012547
O		3.40679894		2.13896988		0.48365879		 0.00019056		 0.00014413		-0.00008224
O		3.40679894		6.55602978		2.77370922		 0.00019056		-0.00014413		-0.00008224
O		7.92629783		6.48646926		1.80639164		 0.00019056		 0.00014413		 0.00008224
O		7.92629783		2.20852950		4.09644207		 0.00019056		-0.00014413		 0.00008224
O		3.23415405		8.35502481		1.26410771		 0.00003460		 0.00039439		 0.00025147
O		3.23415405		0.33997395		3.55415814		 0.00003460		-0.00039439		 0.00025147
O		7.75365384		4.00752453		1.02594182		 0.00003460		 0.00039439		-0.00025147
O		7.75365384		4.68747423		3.31599225		 0.00003460		-0.00039439		-0.00025147
O		7.93985633		7.90114591		4.00804608		 0.00028511		-0.00033037		-0.00002635
O		7.93985633		0.79385375		1.71799565		 0.00028511		 0.00033037		-0.00002635
O		3.42035744		3.55364563		2.86210521		 0.00028511		-0.00033037		 0.00002635
O		3.42035744		5.14135313		0.57205388		 0.00028511		 0.00033037		 0.00002635
O		5.61683344		6.61080793		4.39094171		 0.00018319		-0.00037249		-0.00000572
O		5.61683344		2.08419173		2.10089219		 0.00018319		 0.00037249		-0.00000572
O		1.09733455		2.26330765		2.47920777		 0.00018319		-0.00037249		 0.00000572
O		1.09733455		6.43169111		0.18915824		 0.00018319		 0.00037249		 0.00000572
O		5.84280843		8.27503057		2.57493168		-0.00001906		-0.00009802		 0.00006414
O		5.84280843		0.41996909		0.28488215		-0.00001906		 0.00009802		 0.00006414
O		1.32330863		3.92753119		4.29521781		-0.00001906		-0.00009802		-0.00006414
O		1.32330863		4.76746847		2.00516828		-0.00001906		 0.00009802		-0.00006414
Si		2.68187118		0.77124631		0.31327907		 0.00025337		 0.00003081		-0.00059588
Si		2.68187118		7.92375245		2.60332860		 0.00025337		-0.00003081		-0.00059588
Si		7.20137097		5.11874569		1.97677136		 0.00025337		 0.00003081		 0.00059588
Si		7.20137097		3.57625307		4.26682088		 0.00025337		-0.00003081		 0.00059588
Si		6.34447381		7.91592648		3.94804610		-0.00014292		 0.00004407		-0.00058935
Si		6.34447381		0.77907228		1.65799567		-0.00014292		-0.00004407		-0.00058935
Si		1.82497402		3.56842801		2.92210428		-0.00014292		 0.00004407		 0.00058935
Si		1.82497402		5.12657166		0.63205385		-0.00014292		-0.00004407		 0.00058935
Mg		9.01640118		0.83558862		3.27935176		-0.00036301		 0.00000474		 0.00050755
Mg		9.01640118		7.85940923		0.98930223		-0.00036301		-0.00000474		 0.00050755
Mg		4.49690139		5.18308891		3.59079772		-0.00036301		 0.00000474		-0.00050755
Mg		4.49690139		3.51190985		1.30074820		-0.00036301		-0.00000474		-0.00050755
Mg		0.05423400		2.28417598		0.98517955		-0.00038619		-0.00031051		-0.00015187
Mg		0.05423400		6.41082368		3.27522998		-0.00038619		 0.00031051		-0.00015187
Mg		4.57373379		6.63167536		1.30487088		-0.00038619		-0.00031051		 0.00015187
Mg		4.57373379		2.06332430		3.59492041		-0.00038619		 0.00031051		 0.00015187
