# total energy = -66814.6890235 eV

CRYSTAL
PRIMVEC
		18.34339916		0.00000000		-0.73373523
		0.00000000		6.73129745		0.00000000
		-0.43537992		0.00000000		10.88440628
PRIMECORD
   112 1
Ca		14.07110240		6.72409741		1.95373161		 0.00036400		 0.00019046		 0.00011022
Ca		3.83692050		0.00720371		8.19693210		-0.00036400		-0.00019046		-0.00011022
Ca		4.07064807		0.00720371		2.35375022		 0.00007968		 0.00013267		 0.00030994
Ca		13.83737483		6.72409741		7.79691349		-0.00007968		-0.00013267		-0.00030994
Ca		13.22630821		3.35844685		2.38786318		-0.00036400		 0.00019046		-0.00011022
Ca		4.68171470		3.37285243		7.76280053		 0.00036400		-0.00019046		 0.00011022
Ca		4.88336338		3.37285243		2.72158163		-0.00007968		 0.00013267		-0.00030994
Ca		13.02465952		3.35844685		7.42908207		 0.00007968		-0.00013267		 0.00030994
Ca		7.22952254		1.06469080		7.84627833		 0.00008214		 0.00024122		-0.00057038
Ca		10.67850037		5.66661032		2.30438538		-0.00008214		-0.00024122		 0.00057038
Ca		10.46199634		5.66661032		7.71698063		-0.00026111		-0.00021701		-0.00047696
Ca		7.44602657		1.06469080		2.43368308		 0.00026111		 0.00021701		 0.00047696
Ca		1.28911266		4.43033952		8.11345430		-0.00008214		 0.00024122		 0.00057038
Ca		16.61891024		2.30095976		2.03721125		 0.00008214		-0.00024122		-0.00057038
Ca		16.40003802		2.30095976		7.50901677		 0.00026111		-0.00021701		 0.00047696
Ca		1.50798488		4.43033952		2.64164877		-0.00026111		 0.00021701		-0.00047696
Ca		6.10413263		5.40388802		-0.24416413		 0.00038317		 0.00050811		 0.00035005
Ca		12.23926469		1.32741126		-0.48957110		-0.00038317		-0.00050811		-0.00035005
Ca		2.84987882		2.03823746		5.31949782		-0.00038317		 0.00050811		-0.00035005
Ca		15.05814408		4.69306182		4.83116772		 0.00038317		-0.00050811		 0.00035005
Ca		12.13255475		1.15643707		4.94818939		 0.00006184		-0.00018233		 0.00007089
Ca		5.77546632		5.57486221		5.20247432		-0.00006184		 0.00018233		-0.00007089
Ca		15.16485402		4.52208763		-0.60659460		-0.00006184		-0.00018233		-0.00007089
Ca		3.17854330		2.20921348		-0.12714247		 0.00006184		 0.00018233		 0.00007089
Ca		9.17169958		3.36565056		-0.36686762		0.00000000		0.00000000		0.00000000
Ca		-0.21768813		0.00000000		5.44219947		0.00000000		0.00000000		0.00000000
Ca		8.95401145		3.36565056		5.07533185		0.00000000		0.00000000		0.00000000
Ca		0.00000000		0.00000000		0.00000000		0.00000000		0.00000000		0.00000000
Si		7.36187870		4.84249649		7.87510600		-0.00017126		-0.00001388		-0.00024623
Si		10.54614237		1.88880279		2.27555770		 0.00017126		 0.00001388		 0.00024623
Si		10.32690483		1.88880279		7.75650555		 0.00025994		 0.00000088		 0.00026162
Si		7.58111624		4.84249649		2.39415816		-0.00025994		-0.00000088		-0.00026162
Si		1.15675650		1.47684776		8.08462663		 0.00017126		-0.00001388		 0.00024623
Si		16.75126640		5.25445335		2.06603892		-0.00017126		 0.00001388		-0.00024623
Si		16.53512770		5.25445335		7.46949002		-0.00025994		 0.00000088		-0.00026162
Si		1.37289337		1.47684776		2.68117369		 0.00025994		-0.00000088		 0.00026162
Si		11.95920870		4.95087150		4.95512323		-0.00009127		 0.00022842		-0.00034457
Si		5.94881237		1.78042962		5.19554048		 0.00009127		-0.00022842		 0.00034457
Si		15.33820007		1.58522094		-0.61352844		 0.00009127		 0.00022842		 0.00034457
Si		3.00519909		5.14607834		-0.12020862		-0.00009127		-0.00022842		-0.00034457
Si		6.20337083		1.90361225		-0.24813498		-0.00024361		 0.00009907		-0.00004515
Si		12.14002832		4.82768887		-0.48560025		 0.00024361		-0.00009907		 0.00004515
Si		2.75064062		5.26926097		5.32346683		 0.00024361		 0.00009907		 0.00004515
Si		15.15738229		1.46203831		4.82719687		-0.00024361		-0.00009907		-0.00004515
Mg		8.95401145		0.00000000		5.07533185		0.00000000		0.00000000		0.00000000
Mg		0.00000000		3.36565056		0.00000000		0.00000000		0.00000000		0.00000000
Mg		9.17169958		0.00000000		-0.36686762		-0.00000000		0.00000000		-0.00000000
Mg		-0.21768813		3.36565056		5.44219947		0.00000000		0.00000000		0.00000000
O		5.24262341		1.72994309		1.11606768		-0.00010146		 0.00056023		-0.00033414
O		12.66539949		5.00135619		9.03459602		 0.00010146		-0.00056023		 0.00033414
O		12.99454312		5.00135619		0.80599075		 0.00067267		-0.00018178		 0.00047275
O		4.91347795		1.72994309		9.34467296		-0.00067267		 0.00018178		-0.00047275
O		3.71138804		5.09559365		3.95926417		 0.00010146		 0.00056023		 0.00033414
O		14.19663487		1.63570563		6.19139954		-0.00010146		-0.00056023		-0.00033414
O		14.30286566		1.63570563		3.53560587		-0.00067267		-0.00018178		-0.00047275
O		3.60515541		5.09559365		6.61505784		 0.00067267		 0.00018178		 0.00047275
O		12.61610625		5.70410300		3.62806995		 0.00008571		-0.00017016		-0.00015700
O		5.29191666		1.02719628		6.52259376		-0.00008571		 0.00017016		 0.00015700
O		5.39614459		1.02719628		3.91686805		-0.00016049		 0.00003658		-0.00017435
O		12.51187832		5.70410300		6.23379566		 0.00016049		-0.00003658		 0.00017435
O		14.68130436		2.33845428		0.71352667		-0.00008571		-0.00017016		 0.00015700
O		3.22671854		4.39284500		9.43713704		 0.00008571		 0.00017016		-0.00015700
O		3.55786503		4.39284500		1.15846380		 0.00016049		 0.00003658		 0.00017435
O		14.35015604		2.33845428		8.99219990		-0.00016049		-0.00003658		-0.00017435
O		8.35127021		5.25647274		9.01807744		 0.00048056		-0.00001863		-0.00011867
O		9.55675086		1.47482838		1.13258811		-0.00048056		 0.00001863		 0.00011867
O		9.24275815		1.47482838		8.98241689		 0.00018342		 0.00034347		-0.00004945
O		8.66526292		5.25647274		1.16824682		-0.00018342		-0.00034347		 0.00004945
O		0.16736499		1.89082218		6.94165519		-0.00048056		-0.00001863		 0.00011867
O		17.74065791		4.84047710		3.20900851		 0.00048056		 0.00001863		-0.00011867
O		17.61927437		4.84047710		6.24357867		-0.00018342		 0.00034347		 0.00004945
O		0.28874853		1.89082218		3.90708504		 0.00018342		-0.00034347		-0.00004945
O		5.87483670		5.45302522		8.30862993		 0.00019393		 0.00001174		-0.00033350
O		12.03318621		1.27827406		1.84203378		-0.00019393		-0.00001174		 0.00033350
O		11.78397728		1.27827406		8.07226430		 0.00031504		-0.00011330		 0.00054835
O		6.12404563		5.45302522		2.07839940		-0.00031504		 0.00011330		-0.00054835
O		2.64380034		2.08737650		7.65110087		-0.00019393		 0.00001174		 0.00033350
O		15.26422257		4.64392462		2.49956100		 0.00019393		-0.00001174		-0.00033350
O		15.07805708		4.64392462		7.15373126		-0.00031504		-0.00011330		-0.00054835
O		2.82996583		2.08737650		2.99693245		 0.00031504		 0.00011330		 0.00054835
O		6.89711852		3.33805104		-0.27588503		-0.00002874		-0.00002218		-0.00005766
O		11.44628063		3.39324824		-0.45785020		 0.00002874		 0.00002218		 0.00005766
O		2.05689477		6.70370160		5.35121689		 0.00002874		-0.00002218		 0.00005766
O		15.85112814		0.02759768		4.79944682		-0.00002874		 0.00002218		-0.00005766
O		7.23523006		3.29497016		7.52503969		-0.00007609		 0.00014364		-0.00002571
O		10.67279284		3.43632912		2.62562402		 0.00007609		-0.00014364		 0.00002571
O		10.48201214		3.43632912		7.39516922		 0.00024387		-0.00023912		-0.00015603
O		7.42601261		3.29497016		2.75549633		-0.00024387		 0.00023912		 0.00015603
O		1.28340514		6.66062072		8.43469294		 0.00007609		 0.00014364		 0.00002571
O		16.62461593		0.07067856		1.71597261		-0.00007609		-0.00014364		-0.00002571
O		16.38002222		0.07067856		7.83082818		-0.00024387		-0.00023912		 0.00015603
O		1.52800068		6.66062072		2.31983553		 0.00024387		 0.00023912		-0.00015603
O		7.29700312		0.70342056		-0.29188042		 0.00026262		 0.00054248		 0.00010012
O		11.04639420		6.02787873		-0.44185665		-0.00026262		-0.00054248		-0.00010012
O		1.65700649		4.06907111		5.36721227		-0.00026262		 0.00054248		-0.00010012
O		16.25101458		2.66222817		4.78345144		 0.00026262		-0.00054248		 0.00010012
O		10.35544611		5.19521738		5.01927550		-0.00019902		-0.00015809		 0.00003056
O		7.55257496		1.53608374		5.13139005		 0.00019902		 0.00015809		-0.00003056
O		16.94196266		1.82956682		-0.67767887		 0.00019902		-0.00015809		-0.00003056
O		1.40143466		4.90173246		-0.05605636		-0.00019902		 0.00015809		 0.00003056
O		12.52363666		3.45046299		4.93254648		-0.00011044		 0.00049352		-0.00017410
O		5.38438624		3.28083629		5.21811723		 0.00011044		-0.00049352		 0.00017410
O		14.77377395		0.08481427		-0.59095169		 0.00011044		 0.00049352		 0.00017410
O		3.56962521		6.64648501		-0.14278538		-0.00011044		-0.00049352		-0.00017410
O		7.87585869		5.66102212		6.52681795		 0.00023884		-0.00015339		 0.00013456
O		10.03216422		1.07027716		3.62384576		-0.00023884		 0.00015339		-0.00013456
O		9.91931351		1.07027716		6.44508049		 0.00016814		 0.00033630		-0.00026107
O		7.98870940		5.66102212		3.70558322		-0.00016814		-0.00033630		 0.00026107
O		0.64277652		2.29537340		9.43291285		-0.00023884		-0.00015339		-0.00013456
O		17.26524639		4.43592588		0.71775086		 0.00023884		 0.00015339		 0.00013456
O		16.94271901		4.43592588		8.78091507		-0.00016814		 0.00033630		 0.00026107
O		0.96530206		2.29537340		1.36974864		 0.00016814		-0.00033630		-0.00026107
