# total energy = -66805.0450813 eV

CRYSTAL
PRIMVEC
		18.34340159		0.00000000		2.20120376
		0.00000000		6.73129199		0.00000000
		1.30612700		0.00000000		10.88439787
PRIMECORD
   112 1
Ca		14.47439871		6.72409598		4.22124167		 0.00012459		-0.00059050		-0.00033048
Ca		5.17512804		0.00720340		8.86436734		-0.00012459		 0.00059050		 0.00033048
Ca		4.47394641		0.00720340		3.02118518		-0.00017284		 0.00001661		-0.00013426
Ca		15.17558034		6.72409598		10.06442199		 0.00017284		-0.00001661		 0.00013426
Ca		13.69376349		3.35844629		4.52277029		-0.00012459		-0.00059050		 0.00033048
Ca		5.95576326		3.37285309		8.56283688		 0.00012459		 0.00059050		-0.00033048
Ca		5.35081789		3.37285309		3.52161748		 0.00017284		 0.00001661		 0.00013426
Ca		14.29870886		3.35844629		9.56398969		-0.00017284		-0.00001661		-0.00013426
Ca		8.53328243		1.06469018		9.05515311		-0.00040245		 0.00023374		-0.00007861
Ca		11.11624432		5.66660920		4.03045405		 0.00040245		-0.00023374		 0.00007861
Ca		11.76575508		5.66660920		9.44305050		-0.00002169		-0.00017190		-0.00034388
Ca		7.88377166		1.06469018		3.64255852		 0.00002169		 0.00017190		 0.00034388
Ca		2.59760888		4.43033986		8.37205111		 0.00040245		 0.00023374		 0.00007861
Ca		17.05191787		2.30095951		4.71355606		-0.00040245		-0.00023374		-0.00007861
Ca		17.70853412		2.30095951		10.18536302		 0.00002169		-0.00017190		 0.00034388
Ca		1.94099263		4.43033986		2.90024599		-0.00002169		 0.00017190		-0.00034388
Ca		6.10413228		5.40388733		0.73249676		 0.00039813		 0.00021036		 0.00014581
Ca		12.23926561		1.32741205		1.46871254		-0.00039813		-0.00021036		-0.00014581
Ca		3.72063017		2.03823764		5.81030775		-0.00039813		 0.00021036		-0.00014581
Ca		15.92889473		4.69306174		7.27529942		 0.00039813		-0.00021036		 0.00014581
Ca		13.00330844		1.15643702		6.92422825		-0.00013398		 0.00021068		 0.00022963
Ca		6.64621831		5.57486236		6.16137891		 0.00013398		-0.00021068		-0.00022963
Ca		15.16485376		4.52208671		1.81978371		 0.00013398		 0.00021068		-0.00022963
Ca		3.17854414		2.20921267		0.38142559		-0.00013398		-0.00021068		 0.00022963
Ca		9.17169895		3.36564969		1.10060373		0.00000000		0.00000000		-0.00000000
Ca		0.65306350		0.00000000		5.44220078		0.00000000		0.00000000		0.00000000
Ca		9.82476430		3.36564969		6.54280451		-0.00000000		-0.00000000		0.00000000
Ca		0.00000000		0.00000000		0.00000000		0.00000000		-0.00000000		0.00000000
Si		8.67110592		4.84249677		9.10537740		 0.00036286		 0.00031060		-0.00005782
Si		10.97841898		1.88880261		3.98023162		-0.00036286		-0.00031060		 0.00005782
Si		11.63613264		1.88880261		9.46118001		-0.00013442		 0.00002180		-0.00014746
Si		8.01339226		4.84249677		3.62442715		 0.00013442		-0.00002180		 0.00014746
Si		2.45978539		1.47684708		8.32182867		-0.00036286		 0.00031060		 0.00005782
Si		17.18974321		5.25445230		4.76378034		 0.00036286		-0.00031060		-0.00005782
Si		17.83815656		5.25445230		10.16723351		 0.00013442		 0.00002180		 0.00014746
Si		1.81137019		1.47684708		2.91837551		-0.00013442		-0.00002180		-0.00014746
Si		12.82996121		4.95087111		6.90342725		 0.00054281		-0.00012087		-0.00031409
Si		6.81956553		1.78042826		6.18217992		-0.00054281		 0.00012087		 0.00031409
Si		15.33819913		1.58522143		1.84058471		-0.00054281		-0.00012087		 0.00031409
Si		3.00519876		5.14607980		0.36062459		 0.00054281		 0.00012087		-0.00031409
Si		6.20337074		1.90361217		0.74440390		 0.00054531		 0.00017255		-0.00047568
Si		12.14002716		4.82768906		1.45680355		-0.00054531		-0.00017255		 0.00047568
Si		3.62139356		5.26926001		5.79840061		-0.00054531		 0.00017255		 0.00047568
Si		16.02813319		1.46203752		7.28720840		 0.00054531		-0.00017255		-0.00047568
Mg		9.82476430		0.00000000		6.54280451		0.00000000		0.00000000		-0.00000000
Mg		0.00000000		3.36564969		0.00000000		0.00000000		0.00000000		0.00000000
Mg		9.17169895		0.00000000		1.10060373		-0.00000000		-0.00000000		0.00000000
Mg		0.65306350		3.36564969		5.44220078		0.00000000		-0.00000000		0.00000000
O		5.45508709		1.72994348		1.96338433		 0.00049509		-0.00061029		 0.00021875
O		14.19443966		5.00135590		11.12222283		-0.00049509		 0.00061029		-0.00021875
O		13.20700823		5.00135590		2.89361531		-0.00034424		 0.00007046		 0.00037635
O		6.44252036		1.72994348		10.19199185		 0.00034424		-0.00007046		-0.00037635
O		4.36967536		5.09559317		4.57941833		-0.00049509		-0.00061029		-0.00021875
O		15.27984954		1.63570621		8.50618884		 0.00049509		 0.00061029		 0.00021875
O		14.96115396		1.63570621		5.85039665		 0.00034424		 0.00007046		-0.00037635
O		4.68837279		5.09559317		7.23521237		-0.00034424		-0.00007046		 0.00037635
O		13.27840117		5.70410421		5.67313827		-0.00078623		-0.00004703		-0.00041899
O		6.37112558		1.02719516		7.41246890		 0.00078623		 0.00004703		 0.00041899
O		6.05843807		1.02719516		4.80674395		 0.00011653		-0.00038827		-0.00014134
O		13.59108683		5.70410421		8.27886506		-0.00011653		 0.00038827		 0.00014134
O		14.88976102		2.33845452		3.07087369		 0.00078623		-0.00004703		 0.00041899
O		4.75976572		4.39284670		10.01473532		-0.00078623		 0.00004703		-0.00041899
O		3.76632438		4.39284670		1.73606055		-0.00011653		-0.00038827		 0.00014134
O		15.88320237		2.33845452		11.34954846		 0.00011653		 0.00038827		-0.00014134
O		9.85000854		5.25647162		10.41422946		 0.00006727		-0.00038602		 0.00036271
O		9.79951821		1.47482776		2.67137955		-0.00006727		 0.00038602		-0.00036271
O		10.74149744		1.47482776		10.52120710		 0.00002219		 0.00001031		 0.00005219
O		8.90802930		5.25647162		2.56440007		-0.00002219		-0.00001031		-0.00005219
O		1.28088277		1.89082193		7.01297476		-0.00006727		-0.00038602		-0.00036271
O		18.36864398		4.84047745		6.07263241		 0.00006727		 0.00038602		 0.00036271
O		18.73279176		4.84047745		9.10720457		-0.00002219		 0.00001031		-0.00005219
O		0.91673499		1.89082193		3.97840444		 0.00002219		-0.00001031		 0.00005219
O		7.24400647		5.45302528		9.30337027		 0.00040853		 0.00008209		 0.00000847
O		12.40552028		1.27827410		3.78223690		-0.00040853		-0.00008209		-0.00000847
O		13.15314807		1.27827410		10.01246844		-0.00030206		-0.00024077		 0.00015907
O		6.49637868		5.45302528		3.07314057		 0.00030206		 0.00024077		-0.00015907
O		3.88688484		2.08737559		8.12383395		-0.00040853		 0.00008209		-0.00000847
O		15.76264191		4.64392379		4.96177506		 0.00040853		-0.00008209		 0.00000847
O		16.32114113		4.64392379		9.61594323		 0.00030206		-0.00024077		-0.00015907
O		3.32838562		2.08737559		3.46966393		-0.00030206		 0.00024077		 0.00015907
O		6.89711804		3.33805174		0.82765409		 0.00010520		 0.00034496		-0.00062472
O		11.44627986		3.39324764		1.37355336		-0.00010520		-0.00034496		 0.00062472
O		2.92764626		6.70370143		5.71515042		-0.00010520		 0.00034496		 0.00062472
O		16.72188049		0.02759795		7.37045860		 0.00010520		-0.00034496		-0.00062472
O		8.48754572		3.29497173		8.73276807		-0.00046612		-0.00036510		 0.00059079
O		11.16198103		3.43632949		4.35283909		 0.00046612		 0.00036510		-0.00059079
O		11.73432726		3.43632949		9.12238363		-0.00011144		 0.00025871		-0.00007084
O		7.91519949		3.29497173		3.96322538		 0.00011144		-0.00025871		 0.00007084
O		2.64334559		6.66062142		8.69443430		 0.00046612		-0.00036510		-0.00059079
O		17.00617932		0.07067980		4.39117287		-0.00046612		 0.00036510		 0.00059079
O		17.73996194		0.07067980		10.50602804		 0.00011144		 0.00025871		 0.00007084
O		1.90956297		6.66062142		2.57957913		-0.00011144		-0.00025871		-0.00007084
O		7.29700385		0.70342081		0.87563921		-0.00028631		-0.00059311		 0.00009164
O		11.04639405		6.02787857		1.32556640		 0.00028631		 0.00059311		-0.00009164
O		2.52775860		4.06907050		5.66716345		 0.00028631		-0.00059311		-0.00009164
O		17.12176630		2.66222888		7.41844556		-0.00028631		 0.00059311		 0.00009164
O		11.22619828		5.19521776		6.71097503		 0.00067809		 0.00075420		-0.00012447
O		8.42332847		1.53608347		6.37463213		-0.00067809		-0.00075420		 0.00012447
O		16.94196391		1.82956622		2.03303508		-0.00067809		 0.00075420		 0.00012447
O		1.40143583		4.90173316		0.16817237		 0.00067809		-0.00075420		-0.00012447
O		13.39438906		3.45046472		6.97115844		-0.00044983		-0.00078000		 0.00022173
O		6.25513769		3.28083651		6.11444872		 0.00044983		 0.00078000		-0.00022173
O		14.77377313		0.08481318		1.77285351		 0.00044983		-0.00078000		-0.00022173
O		3.56962476		6.64648435		0.42835578		-0.00044983		 0.00078000		 0.00022173
O		8.97230937		5.66102236		7.83081493		-0.00053092		 0.00040878		 0.00000013
O		10.67721738		1.07027702		5.25479224		 0.00053092		-0.00040878		-0.00000013
O		11.01576435		1.07027702		8.07602989		-0.00041380		 0.00018620		-0.00018092
O		8.63376240		5.66102236		5.00957912		 0.00041380		-0.00018620		 0.00018092
O		2.15858009		2.29537267		9.59638929		 0.00053092		 0.00040878		-0.00000013
O		17.49094481		4.43592670		3.48921972		-0.00053092		-0.00040878		 0.00000013
O		18.45852485		4.43592670		11.55238363		 0.00041380		 0.00018620		 0.00018092
O		1.19100190		2.29537267		1.53322539		-0.00041380		-0.00018620		-0.00018092
