# total energy = -34532.1823686 eV

CRYSTAL
PRIMVEC
		9.34399986		0.00000000		0.00000000
		0.00000000		5.30799928		0.00000000
		-0.48050585		0.00000000		13.28130911
PRIMECORD
   56 1
Si		1.25702494		2.54146985		4.82257662		-0.00015029		 0.00042698		-0.00009314
Si		7.60647094		2.76653036		8.45873342		 0.00015029		-0.00042698		 0.00009314
Si		7.84672293		2.54146985		1.81807887		 0.00015103		 0.00042781		 0.00009420
Si		1.01677295		2.76653036		11.46323210		-0.00015103		-0.00042781		-0.00009420
Si		5.92902487		5.19546949		4.82257662		-0.00015160		 0.00042616		-0.00009153
Si		2.93447101		0.11252979		8.45873342		 0.00015160		-0.00042616		 0.00009153
Si		3.17472300		5.19546949		1.81807887		 0.00014989		 0.00042867		 0.00009594
Si		5.68877288		0.11252979		11.46323210		-0.00014989		-0.00042867		-0.00009594
Mg		4.43174794		2.65399964		6.64065455		0.00000000		0.00000000		0.00000000
Mg		4.67199993		2.65399964		0.00000000		0.00000000		0.00000000		0.00000000
Mg		-0.24025199		0.00000000		6.64065455		0.00000000		0.00000000		0.00000000
Mg		0.00000000		0.00000000		0.00000000		0.00000000		0.00000000		0.00000000
O		0.46208042		1.13431953		4.97119480		 0.00032847		 0.00020244		-0.00040422
O		8.40141453		4.17367974		8.31011617		-0.00032847		-0.00020244		 0.00040422
O		8.64166745		1.13431953		1.66946068		-0.00032839		 0.00020199		 0.00040523
O		0.22182843		4.17367974		11.61184936		 0.00032839		-0.00020199		-0.00040523
O		5.13408034		3.78832011		4.97119480		 0.00032893		 0.00020309		-0.00040444
O		3.72941553		1.51968010		8.31011617		-0.00032893		-0.00020309		 0.00040444
O		3.96966752		3.78832011		1.66946068		-0.00032799		 0.00020131		 0.00040503
O		4.89382835		1.51968010		11.61184936		 0.00032799		-0.00020131		-0.00040503
O		2.66276525		2.43743375		5.63791629		-0.00047480		 0.00024368		 0.00029350
O		6.20072970		2.87056552		7.64339375		 0.00047480		-0.00024368		-0.00029350
O		6.44098262		2.43743375		1.00273920		 0.00047398		 0.00024394		-0.00029378
O		2.42251326		2.87056552		12.27857178		-0.00047398		-0.00024394		 0.00029378
O		7.33476517		5.09143433		5.63791629		-0.00047427		 0.00024377		 0.00029350
O		1.52873070		0.21656588		7.64339375		 0.00047427		-0.00024377		-0.00029350
O		1.76898269		5.09143433		1.00273920		 0.00047435		 0.00024393		-0.00029373
O		7.09451318		0.21656588		12.27857178		-0.00047435		-0.00024393		 0.00029373
O		0.40556510		3.65933460		5.65518213		 0.00026817		 0.00039803		 0.00041845
O		8.45793078		1.64866468		7.62612884		-0.00026817		-0.00039803		-0.00041845
O		8.69818277		3.65933460		0.98547335		-0.00026840		 0.00039743		-0.00041860
O		0.16531218		1.64866468		12.29583669		 0.00026840		-0.00039743		 0.00041860
O		5.07756409		1.00533496		5.65518213		 0.00026846		 0.00039765		 0.00041814
O		3.78593085		4.30266525		7.62612884		-0.00026846		-0.00039765		-0.00041814
O		4.02618284		1.00533496		0.98547335		-0.00026801		 0.00039782		-0.00041891
O		4.83731210		4.30266525		12.29583669		 0.00026801		-0.00039782		 0.00041891
O		1.45510185		3.11208082		3.35087515		 0.00002294		-0.00001016		-0.00029326
O		7.40839402		2.19592032		9.93043583		-0.00002294		 0.00001016		 0.00029326
O		7.64864601		3.11208082		3.28978127		-0.00002297		-0.00001153		 0.00029217
O		1.21484893		2.19592032		9.99152970		 0.00002297		 0.00001153		-0.00029217
O		6.12710085		0.45808025		3.35087515		 0.00002321		-0.00000974		-0.00029457
O		2.73639410		4.84991996		9.93043583		-0.00002321		 0.00000974		 0.00029457
O		2.97664609		0.45808025		3.28978127		-0.00002268		-0.00001202		 0.00029080
O		5.88684886		4.84991996		9.99152970		 0.00002268		 0.00001202		-0.00029080
Ca		1.59139157		2.54783965		1.18761491		 0.00003103		 0.00057876		 0.00022894
Ca		7.27210244		2.76015962		12.09369607		-0.00003103		-0.00057876		-0.00022894
Ca		7.51235443		2.54783965		5.45304058		-0.00003107		 0.00057889		-0.00022834
Ca		1.35113958		2.76015962		7.82826946		 0.00003107		-0.00057889		 0.00022834
Ca		6.26339149		5.20184023		1.18761491		 0.00003103		 0.00057876		 0.00022889
Ca		2.60010251		0.10615999		12.09369607		-0.00003103		-0.00057876		-0.00022889
Ca		2.84035450		5.20184023		5.45304058		-0.00003078		 0.00057889		-0.00022839
Ca		6.02313950		0.10615999		7.82826946		 0.00003078		-0.00057889		 0.00022839
Ca		-0.12012646		4.93166314		3.32032774		 0.00000033		-0.00005876		 0.00000106
Ca		-0.36037845		0.37633707		9.96098323		-0.00000033		 0.00005876		-0.00000106
Ca		4.55187347		2.27766257		3.32032774		 0.00000010		-0.00005867		 0.00000115
Ca		4.31162148		3.03033671		9.96098323		-0.00000010		 0.00005867		-0.00000115
