# total energy = -9214.90969022 eV	

CRYSTAL	
PRIMVEC	
		5.05969975		0.00000000		0.00000000	
		-2.52984988		4.61245265		0.00000000	
		0.00000000		0.00000000		7.28800164	
PRIMCOORD
   18 1	
Mg		1.67880888		0.00000000		3.31603968		-0.00004196		0.00000000		-0.00035383	
Mg		-0.83940419		1.53041093		3.31603968		 0.00037821		 0.00012441		-0.00017120	
Mg		1.69044569		3.08203970		3.31603968		 0.00037821		-0.00012441		-0.00017120	
Si		0.00000000		3.07496776		0.53931188		-0.00011117		-0.00000628		 0.00007204	
Si		2.52984988		1.53748388		0.53931188		-0.00011117		 0.00000628		 0.00007204	
H		2.94980496		0.00000000		5.33481587		-0.00020434		-0.00000000		 0.00061669	
H		-1.47490298		2.68905889		5.33481587		 0.00018746		 0.00011068		 0.00017454	
H		1.05494689		1.92339173		5.33481587		 0.00018746		-0.00011068		 0.00017454	
H		0.00000000		0.00000000		1.43573585		-0.00010944		-0.00000000		 0.00051049	
O		0.00000000		3.07496776		2.12153666		 0.00002093		-0.00003901		 0.00016880	
O		2.52984988		1.53748388		2.12153666		 0.00002093		 0.00003901		 0.00016880	
O		2.56526777		0.00000000		7.22969569		 0.00001915		-0.00000000		-0.00003803	
O		-1.28263389		2.33851278		7.22969569		-0.00006175		-0.00006889		 0.00013110	
O		1.24721599		2.27393785		7.22969569		-0.00006175		 0.00006889		 0.00013110	
O		3.35964063		0.00000000		4.28534357		 0.00001765		0.00000000		-0.00052918	
O		-1.67981981		3.06266763		4.28534357		-0.00016728		-0.00024101		-0.00045812	
O		0.85003006		1.54978401		4.28534357		-0.00016728		 0.00024101		-0.00045812	
O		0.00000000		0.00000000		2.21555195		-0.00017386		-0.00000000		-0.00004045	
