# total energy = -9213.98179726 eV	

CRYSTAL	
PRIMVEC	
		4.79339979		0.00000000		0.00000000	
		-2.39669990		4.61244895		0.00000000	
		0.00000000		0.00000000		7.28800009	
PRIMCOORD
   18 1	
Mg		1.59045005		0.00000000		3.31603994		-0.00011616		-0.00000000		-0.00004922	
Mg		-0.79522503		1.53041080		3.31603994		 0.00060276		-0.00080193		-0.00013771	
Mg		1.60147487		3.08204007		3.31603994		 0.00060276		 0.00080193		-0.00013771	
Si		0.00000000		3.07496788		0.53931212		-0.00033483		 0.00011459		-0.00023822	
Si		2.39669990		1.53748394		0.53931212		-0.00033483		-0.00011459		-0.00023822	
H		2.79455208		0.00000000		5.33481574		 0.00005293		0.00000000		-0.00057314	
H		-1.39727604		2.68905894		5.33481574		 0.00020446		 0.00008814		-0.00069090	
H		0.99942386		1.92339193		5.33481574		 0.00020446		-0.00008814		-0.00069090	
H		0.00000000		0.00000000		1.43573588		-0.00045683		0.00000000		-0.00068853	
O		0.00000000		3.07496788		2.12153670		-0.00020458		 0.00014220		 0.00027018	
O		2.39669990		1.53748394		2.12153670		-0.00020458		-0.00014220		 0.00027018	
O		2.43025369		0.00000000		7.22969557		-0.00044943		0.00000000		 0.00037275	
O		-1.21512685		2.33851282		7.22969557		-0.00022045		-0.00016238		 0.00031270	
O		1.18157305		2.27393805		7.22969557		-0.00022045		 0.00016238		 0.00031270	
O		3.18281794		0.00000000		4.28534399		 0.00056082		0.00000000		 0.00075956	
O		-1.59140873		3.06266802		4.28534399		 0.00042254		 0.00012086		 0.00050956	
O		0.80529117		1.54978381		4.28534399		 0.00042254		-0.00012086		 0.00050956	
O		0.00000000		0.00000000		2.21555205		-0.00053111		0.00000000		 0.00012734	
