# total energy = -9215.21122568 eV	

CRYSTAL	
PRIMVEC	
		5.45914969		0.00000000		0.00000000	
		-2.72957485		4.61245195		0.00000000	
		0.00000000		0.00000000		7.28799759	
PRIMCOORD
   18 1	
Mg		1.81134587		0.00000000		3.31603983		 0.00034634		-0.00000000		-0.00036539	
Mg		-0.90567293		1.53041093		3.31603983		-0.00026545		 0.00028189		-0.00010586	
Mg		1.82390191		3.08203993		3.31603983		-0.00026545		-0.00028189		-0.00010586	
Si		0.00000000		3.07496760		0.53931213		 0.00001905		 0.00001637		 0.00011122	
Si		2.72957485		1.53748380		0.53931213		 0.00001905		-0.00001637		 0.00011122	
H		3.18268482		0.00000000		5.33481592		-0.00011196		0.00000000		 0.00003943	
H		-1.59134213		2.68905867		5.33481592		 0.00007950		-0.00010233		 0.00034413	
H		1.13823271		1.92339164		5.33481592		 0.00007950		 0.00010233		 0.00034413	
H		0.00000000		0.00000000		1.43573617		-0.00004572		-0.00000000		 0.00055814	
O		0.00000000		3.07496760		2.12153694		-0.00003455		 0.00006238		 0.00008577	
O		2.72957485		1.53748380		2.12153694		-0.00003455		-0.00006238		 0.00008577	
O		2.76778889		0.00000000		7.22969551		 0.00047699		0.00000000		 0.00023266	
O		-1.38389499		2.33851302		7.22969551		-0.00018602		 0.00036009		 0.00024343	
O		1.34567985		2.27393783		7.22969551		-0.00018602		-0.00036009		 0.00024343	
O		3.62487594		0.00000000		4.28534352		-0.00039070		0.00000000		-0.00041097	
O		-1.81243770		3.06266759		4.28534352		 0.00022642		-0.00027572		-0.00075516	
O		0.91713715		1.54978381		4.28534352		 0.00022642		 0.00027572		-0.00075516	
O		0.00000000		0.00000000		2.21555168		 0.00004718		0.00000000		 0.00009905	
