# total energy = -9214.70617841 eV	

CRYSTAL	
PRIMVEC	
		5.72544965		0.00000000		0.00000000	
		-2.86272482		4.61245086		0.00000000	
		0.00000000		0.00000000		7.28799929	
PRIMCOORD
   18 1	
Mg		1.89970362		0.00000000		3.31603959		 0.00057957		-0.00000000		-0.00075944	
Mg		-0.94985210		1.53041097		3.31603959		-0.00023568		 0.00065074		-0.00022167	
Mg		1.91287273		3.08203989		3.31603959		-0.00023568		-0.00065074		-0.00022167	
Si		0.00000000		3.07496782		0.53931216		-0.00008621		 0.00004609		 0.00031998	
Si		2.86272482		1.53748362		0.53931216		-0.00008621		-0.00004609		 0.00031998	
H		3.33793772		0.00000000		5.33481539		-0.00017796		0.00000000		 0.00077978	
H		-1.66896915		2.68905877		5.33481539		 0.00036951		-0.00009321		 0.00009296	
H		1.19375568		1.92339210		5.33481539		 0.00036951		 0.00009321		 0.00009296	
H		0.00000000		0.00000000		1.43573608		-0.00008175		-0.00000000		 0.00024609	
O		0.00000000		3.07496782		2.12153674		-0.00022697		 0.00035575		 0.00031803	
O		2.86272482		1.53748362		2.12153674		-0.00022697		-0.00035575		 0.00031803	
O		2.90280297		0.00000000		7.22969532		 0.00018556		0.00000000		 0.00066387	
O		-1.45140206		2.33851296		7.22969532		-0.00027536		 0.00031182		 0.00043769	
O		1.41132277		2.27393790		7.22969532		-0.00027536		-0.00031182		 0.00043769	
O		3.80169857		0.00000000		4.28534390		-0.00009769		-0.00000000		-0.00051913	
O		-1.90084871		3.06266783		4.28534390		 0.00026440		-0.00048383		-0.00093631	
O		0.96187611		1.54978418		4.28534390		 0.00026440		 0.00048383		-0.00093631	
O		0.00000000		0.00000000		2.21555206		-0.00002712		0.00000000		-0.00043249	
