# total energy = -9215.15853011 eV	

CRYSTAL	
PRIMVEC	
		5.19284973		0.00000000		0.00000000	
		-2.59642487		4.61245011		0.00000000	
		0.00000000		0.00000000		7.28799843	
PRIMCOORD
   18 1	
Mg		1.72298806		0.00000000		3.31603960		 0.00007158		0.00000000		-0.00037779	
Mg		-0.86149377		1.53041071		3.31603960		 0.00011766		 0.00025128		-0.00020994	
Mg		1.73493110		3.08203992		3.31603960		 0.00011766		-0.00025128		-0.00020994	
Si		0.00000000		3.07496778		0.53931172		-0.00001658		 0.00001874		 0.00002906	
Si		2.59642487		1.53748389		0.53931172		-0.00001658		-0.00001874		 0.00002906	
H		3.02743191		0.00000000		5.33481549		-0.00013553		-0.00000000		 0.00063288	
H		-1.51371570		2.68905907		5.33481549		 0.00011352		-0.00000170		 0.00021431	
H		1.08270917		1.92339207		5.33481549		 0.00011352		 0.00000170		 0.00021431	
H		0.00000000		0.00000000		1.43573571		-0.00004060		0.00000000		 0.00085582	
O		0.00000000		3.07496778		2.12153668		 0.00007901		-0.00002305		 0.00007204	
O		2.59642487		1.53748389		2.12153668		 0.00007901		 0.00002305		 0.00007204	
O		2.63277481		0.00000000		7.22969571		-0.00000711		0.00000000		-0.00001655	
O		-1.31638793		2.33851264		7.22969571		-0.00003094		 0.00002790		 0.00018041	
O		1.28003798		2.27393799		7.22969571		-0.00003094		-0.00002790		 0.00018041	
O		3.44805170		0.00000000		4.28534368		-0.00045562		0.00000000		-0.00073809	
O		-1.72402611		3.06266799		4.28534368		 0.00003518		-0.00042230		-0.00047631	
O		0.87239875		1.54978367		4.28534368		 0.00003518		 0.00042230		-0.00047631	
O		0.00000000		0.00000000		2.21555167		-0.00002841		0.00000000		 0.00002459	
