# total energy = -10831.003662 eV

CRYSTAL
PRIMVEC
		3.03199896		-0.24255931		0.00000000
		-1.72606293		2.74706896		0.00000000
		0.00000000		0.00000000		14.95999782
PRIMECORD
   13 1
Mg		1.44597894		0.75398304		2.49333297		-0.00010067		-0.00016966		 0.00077447
Mg		-0.14004199		1.75052600		12.46666515		 0.00010067		 0.00016966		-0.00077447
Mg		0.00000000		0.00000000		0.00000000		0.00000000		0.00000000		0.00000000
Mg		-0.14004199		1.75052600		4.98666655		 0.00063723		 0.00021995		-0.00046690
Mg		1.44597894		0.75398304		9.97333249		-0.00063723		-0.00021995		 0.00046690
O		1.44597894		0.75398304		13.71333300		 0.00045461		 0.00041736		-0.00013063
O		-0.14004199		1.75052600		1.24666603		-0.00045461		-0.00041736		 0.00013063
O		1.44597894		0.75398304		6.08871953		 0.00037352		-0.00001708		 0.00066616
O		-0.14004199		1.75052600		8.87127950		-0.00037352		 0.00001708		-0.00066616
O		0.00000000		0.00000000		11.22299123		 0.00022965		 0.00032406		-0.00015704
O		0.00000000		0.00000000		3.73700780		-0.00022965		-0.00032406		 0.00015704
H		1.44597894		0.75398304		7.07907144		-0.00061163		-0.00004606		-0.00022953
H		-0.14004199		1.75052600		7.88092850		 0.00061163		 0.00004606		 0.00022953
