# total energy = -10829.9278806 eV

CRYSTAL
PRIMVEC
		3.03200062		0.36383934		0.00000000
		-1.20090649		2.44386927		0.00000000
		0.00000000		0.00000000		14.96000065
PRIMECORD
   13 1
Mg		1.62103199		1.05718316		2.49333303		 0.00012597		 0.00062816		 0.00046411
Mg		0.21006305		1.75052606		12.46666639		-0.00012597		-0.00062816		-0.00046411
Mg		0.00000000		0.00000000		0.00000000		0.00000000		0.00000000		0.00000000
Mg		0.21006305		1.75052606		4.98666729		-0.00057197		-0.00017463		-0.00011631
Mg		1.62103107		1.05718316		9.97333336		 0.00057197		 0.00017463		 0.00011631
O		1.62103199		1.05718316		13.71333459		-0.00022403		-0.00029754		-0.00007366
O		0.21006305		1.75052606		1.24666606		 0.00022403		 0.00029754		 0.00007366
O		1.62103199		1.05718316		6.08872015		-0.00051205		 0.00061060		 0.00049290
O		0.21006305		1.75052606		8.87128050		 0.00051205		-0.00061060		-0.00049290
O		0.00000000		0.00000000		11.22299240		-0.00015272		 0.00039807		-0.00021624
O		0.00000000		0.00000000		3.73700825		 0.00015272		-0.00039807		 0.00021624
H		1.62103199		1.05718316		7.07907224		-0.00032717		 0.00031692		-0.00080147
H		0.21006305		1.75052606		7.88092932		 0.00032717		-0.00031692		 0.00080147
