# total energy = -49432.965097 eV

CRYSTAL
PRIMVEC
		19.14464947		0.00000000		0.00000000
		0.00000000		8.81909765		0.00000000
		0.00000000		0.00000000		5.18019754
PRIMECORD
   80 1
Mg		7.20413160		5.76857388		4.48760730		-0.00059342		 0.00001953		 0.00013602
Mg		11.94051788		3.05052759		0.69259216		 0.00059342		-0.00001953		-0.00013602
Mg		2.36819314		3.05052759		1.89750662		 0.00059342		-0.00001953		 0.00013602
Mg		16.77645633		5.76857388		3.28269284		-0.00059342		 0.00001953		-0.00013602
Mg		11.94051788		1.35902315		3.28269284		 0.00059342		 0.00001953		-0.00013602
Mg		7.20413160		7.46007642		1.89750662		-0.00059342		-0.00001953		 0.00013602
Mg		16.77645633		7.46007642		0.69259216		-0.00059342		-0.00001953		-0.00013602
Mg		2.36819314		1.35902315		4.48760730		 0.00059342		 0.00001953		 0.00013602
Mg		7.21561839		4.29666623		1.85917329		-0.00063603		 0.00037255		 0.00029127
Mg		11.92903109		4.52243333		3.32102617		 0.00063603		-0.00037255		-0.00029127
Mg		2.35670635		4.52243333		4.44927397		 0.00063603		-0.00037255		 0.00029127
Mg		16.78794312		4.29666623		0.73092549		-0.00063603		 0.00037255		-0.00029127
Mg		11.92903109		8.70621505		0.73092549		 0.00063603		 0.00037255		-0.00029127
Mg		7.21561839		0.11288451		4.44927397		-0.00063603		-0.00037255		 0.00029127
Mg		16.78794312		0.11288451		3.32102617		-0.00063603		-0.00037255		-0.00029127
Mg		2.35670635		8.70621505		1.85917329		 0.00063603		 0.00037255		 0.00029127
Si		5.19777233		3.01436909		0.26211705		-0.00021796		 0.00031681		 0.00027221
Si		13.94687714		5.80473238		4.91808240		 0.00021796		-0.00031681		-0.00027221
Si		4.37455240		5.80473238		2.85221774		 0.00021796		-0.00031681		 0.00027221
Si		14.77009707		3.01436909		2.32798172		-0.00021796		 0.00031681		-0.00027221
Si		13.94687714		7.42391792		2.32798172		 0.00021796		 0.00031681		-0.00027221
Si		5.19777233		1.39518165		2.85221774		-0.00021796		-0.00031681		 0.00027221
Si		14.77009707		1.39518165		4.91808240		-0.00021796		-0.00031681		-0.00027221
Si		4.37455240		7.42391792		0.26211705		 0.00021796		 0.00031681		 0.00027221
Si		9.06690599		2.97556480		4.13431768		 0.00048495		 0.00079071		-0.00023935
Si		10.07774348		5.84353667		1.04588177		-0.00048495		-0.00079071		 0.00023935
Si		0.50541875		5.84353667		1.54421891		-0.00048495		-0.00079071		-0.00023935
Si		18.63923073		2.97556480		3.63598246		 0.00048495		 0.00079071		 0.00023935
Si		10.07774348		7.38511363		3.63598246		-0.00048495		 0.00079071		 0.00023935
Si		9.06690599		1.43398594		1.54421891		 0.00048495		-0.00079071		-0.00023935
Si		18.63923073		1.43398594		1.04588177		 0.00048495		-0.00079071		 0.00023935
Si		0.50541875		7.38511363		4.13431768		-0.00048495		 0.00079071		-0.00023935
O		3.51304318		3.00466850		0.17612695		 0.00031087		-0.00037819		 0.00054240
O		15.63160629		5.81443298		5.00407251		-0.00031087		 0.00037819		-0.00054240
O		6.05928156		5.81443298		2.76622763		-0.00031087		 0.00037819		 0.00054240
O		13.08536791		3.00466850		2.41397374		 0.00031087		-0.00037819		-0.00054240
O		15.63160629		7.41421732		2.41397374		-0.00031087		-0.00037819		-0.00054240
O		3.51304318		1.40488224		2.76622763		 0.00031087		 0.00037819		 0.00054240
O		13.08536791		1.40488224		5.00407251		 0.00031087		 0.00037819		-0.00054240
O		6.05928156		7.41421732		0.17612695		-0.00031087		-0.00037819		 0.00054240
O		5.96164385		4.43512608		0.22274991		 0.00035295		-0.00039966		 0.00008411
O		13.18300563		4.38397540		4.95745146		-0.00035295		 0.00039966		-0.00008411
O		3.61068089		4.38397540		2.81284868		-0.00035295		 0.00039966		 0.00008411
O		15.53396858		4.43512608		2.36735078		 0.00035295		-0.00039966		-0.00008411
O		13.18300563		0.02557534		2.36735078		-0.00035295		-0.00039966		-0.00008411
O		5.96164385		8.79352422		2.81284868		 0.00035295		 0.00039966		 0.00008411
O		15.53396858		8.79352422		4.95745146		 0.00035295		 0.00039966		-0.00008411
O		3.61068089		0.02557534		0.22274991		-0.00035295		-0.00039966		 0.00008411
O		5.79125647		1.96136742		4.30992773		 0.00012878		-0.00067489		 0.00073944
O		13.35339301		6.85773214		0.87027365		-0.00012878		 0.00067489		-0.00073944
O		3.78106827		6.85773214		1.71982704		-0.00012878		 0.00067489		 0.00073944
O		15.36358120		1.96136742		3.46037433		 0.00012878		-0.00067489		-0.00073944
O		13.35339301		6.37091816		3.46037433		-0.00012878		-0.00067489		-0.00073944
O		5.79125647		2.44818140		1.71982704		 0.00012878		 0.00067489		 0.00073944
O		15.36358120		2.44818140		0.87027365		 0.00012878		 0.00067489		-0.00073944
O		3.78106827		6.37091816		4.30992773		-0.00012878		-0.00067489		 0.00073944
O		10.76312193		3.01084073		4.13380078		 0.00039087		-0.00031504		-0.00050074
O		8.38152754		5.80825883		1.04640059		-0.00039087		 0.00031504		 0.00050074
O		17.95385228		5.80825883		1.54370009		-0.00039087		 0.00031504		-0.00050074
O		1.19079720		3.01084073		3.63650128		 0.00039087		-0.00031504		 0.00050074
O		8.38152754		7.42039147		3.63650128		-0.00039087		-0.00031504		 0.00050074
O		10.76312193		1.39870809		1.54370009		 0.00039087		 0.00031504		-0.00050074
O		1.19079720		1.39870809		1.04640059		 0.00039087		 0.00031504		 0.00050074
O		17.95385228		7.42039147		4.13380078		-0.00039087		-0.00031504		-0.00050074
O		8.27814643		4.26491674		3.57433860		-0.00011973		 0.00078435		-0.00008656
O		10.86650304		4.55418282		1.60586277		 0.00011973		-0.00078435		 0.00008656
O		1.29417830		4.55418282		0.98423792		 0.00011973		-0.00078435		-0.00008656
O		17.85047117		4.26491674		4.19596154		-0.00011973		 0.00078435		 0.00008656
O		10.86650304		8.67446748		4.19596154		 0.00011973		 0.00078435		 0.00008656
O		8.27814643		0.14463208		0.98423792		-0.00011973		-0.00078435		-0.00008656
O		17.85047117		0.14463208		1.60586277		-0.00011973		-0.00078435		 0.00008656
O		1.29417830		8.67446748		3.57433860		 0.00011973		 0.00078435		-0.00008656
O		8.58254636		1.72060623		3.12366015		-0.00040275		-0.00037246		 0.00035579
O		10.56210311		7.09849334		2.05653931		 0.00040275		 0.00037246		-0.00035579
O		0.98977838		7.09849334		0.53356138		 0.00040275		 0.00037246		 0.00035579
O		18.15487109		1.72060623		4.64663999		-0.00040275		-0.00037246		-0.00035579
O		10.56210311		6.13015696		4.64663999		 0.00040275		-0.00037246		-0.00035579
O		8.58254636		2.68894451		0.53356138		-0.00040275		 0.00037246		 0.00035579
O		18.15487109		2.68894451		2.05653931		-0.00040275		 0.00037246		-0.00035579
O		0.98977838		6.13015696		3.12366015		 0.00040275		-0.00037246		 0.00035579
