# total energy = -49431.7151247 eV

CRYSTAL
PRIMVEC
		19.60047477		0.00000000		0.00000000
		0.00000000		8.81909642		0.00000000
		0.00000000		0.00000000		5.18020948
PRIMECORD
   80 1
Mg		7.37565866		5.76857457		4.48760710		-0.00045082		 0.00066750		 0.00022713
Mg		12.22481612		3.05052773		0.69259258		 0.00045082		-0.00066750		-0.00022713
Mg		2.42457873		3.05052773		1.89750628		 0.00045082		-0.00066750		 0.00022713
Mg		17.17589605		5.76857457		3.28269340		-0.00045082		 0.00066750		-0.00022713
Mg		12.22481612		1.35902244		3.28269340		 0.00045082		 0.00066750		-0.00022713
Mg		7.37565866		7.46007594		1.89750628		-0.00045082		-0.00066750		 0.00022713
Mg		17.17589605		7.46007594		0.69259258		-0.00045082		-0.00066750		-0.00022713
Mg		2.42457873		1.35902244		4.48760710		 0.00045082		 0.00066750		 0.00022713
Mg		7.38741894		4.29666516		1.85917363		-0.00003988		-0.00013214		 0.00031729
Mg		12.21305779		4.52243323		3.32102604		 0.00003988		 0.00013214		-0.00031729
Mg		2.41281844		4.52243323		4.44927445		 0.00003988		 0.00013214		 0.00031729
Mg		17.18765633		4.29666516		0.73092522		-0.00003988		-0.00013214		-0.00031729
Mg		12.21305779		8.70621533		0.73092522		 0.00003988		-0.00013214		-0.00031729
Mg		7.38741894		0.11288501		4.44927445		-0.00003988		 0.00013214		 0.00031729
Mg		17.18765633		0.11288501		3.32102604		-0.00003988		 0.00013214		-0.00031729
Mg		2.41281844		8.70621533		1.85917363		 0.00003988		-0.00013214		 0.00031729
Si		5.32152890		3.01436878		0.26211715		-0.00003218		-0.00043621		-0.00002891
Si		14.27894587		5.80473157		4.91808253		 0.00003218		 0.00043621		 0.00002891
Si		4.47870849		5.80473157		2.85221797		 0.00003218		 0.00043621		-0.00002891
Si		15.12176629		3.01436878		2.32798171		-0.00003218		-0.00043621		 0.00002891
Si		14.27894587		7.42391699		2.32798171		 0.00003218		-0.00043621		 0.00002891
Si		5.32152890		1.39518139		2.85221797		-0.00003218		 0.00043621		-0.00002891
Si		15.12176629		1.39518139		4.91808253		-0.00003218		 0.00043621		 0.00002891
Si		4.47870849		7.42391699		0.26211715		 0.00003218		-0.00043621		-0.00002891
Si		9.28278485		2.97556376		4.13431834		-0.00000335		-0.00052749		 0.00043930
Si		10.31768796		5.84353659		1.04588133		 0.00000335		 0.00052749		-0.00043930
Si		0.51745253		5.84353659		1.54421752		 0.00000335		 0.00052749		 0.00043930
Si		19.08302224		2.97556376		3.63598215		-0.00000335		-0.00052749		-0.00043930
Si		10.31768796		7.38511393		3.63598215		 0.00000335		-0.00052749		-0.00043930
Si		9.28278485		1.43398641		1.54421752		-0.00000335		 0.00052749		 0.00043930
Si		19.08302224		1.43398641		1.04588133		-0.00000335		 0.00052749		-0.00043930
Si		0.51745253		7.38511393		4.13431834		 0.00000335		-0.00052749		 0.00043930
O		3.59668712		3.00466850		0.17612791		-0.00006745		 0.00036770		 0.00053794
O		16.00378765		5.81443380		5.00407373		 0.00006745		-0.00036770		-0.00053794
O		6.20355027		5.81443380		2.76622677		 0.00006745		-0.00036770		 0.00053794
O		13.39692451		3.00466850		2.41397291		-0.00006745		 0.00036770		-0.00053794
O		16.00378765		7.41421867		2.41397291		 0.00006745		 0.00036770		-0.00053794
O		3.59668712		1.40488363		2.76622677		-0.00006745		-0.00036770		 0.00053794
O		13.39692451		1.40488363		5.00407373		-0.00006745		-0.00036770		-0.00053794
O		6.20355027		7.41421867		0.17612791		 0.00006745		 0.00036770		 0.00053794
O		6.10358784		4.43512683		0.22274960		-0.00067076		-0.00025459		 0.00067900
O		13.49688693		4.38397547		4.95745204		 0.00067076		 0.00025459		-0.00067900
O		3.69664954		4.38397547		2.81284845		 0.00067076		 0.00025459		 0.00067900
O		15.90382523		4.43512683		2.36735122		-0.00067076		-0.00025459		-0.00067900
O		13.49688693		0.02557470		2.36735122		 0.00067076		-0.00025459		-0.00067900
O		6.10358784		8.79352564		2.81284845		-0.00067076		 0.00025459		 0.00067900
O		15.90382523		8.79352564		4.95745204		-0.00067076		 0.00025459		-0.00067900
O		3.69664954		0.02557470		0.22274960		 0.00067076		-0.00025459		 0.00067900
O		5.92914362		1.96136855		4.30992684		-0.00034025		 0.00036793		-0.00032498
O		13.67133116		6.85773179		0.87027480		 0.00034025		-0.00036793		 0.00032498
O		3.87109377		6.85773179		1.71982602		 0.00034025		-0.00036793		-0.00032498
O		15.72938101		1.96136855		3.46037366		-0.00034025		 0.00036793		 0.00032498
O		13.67133116		6.37091872		3.46037366		 0.00034025		 0.00036793		 0.00032498
O		5.92914362		2.44818162		1.71982602		-0.00034025		-0.00036793		-0.00032498
O		15.72938101		2.44818162		0.87027480		-0.00034025		-0.00036793		 0.00032498
O		3.87109377		6.37091872		4.30992684		 0.00034025		 0.00036793		-0.00032498
O		11.01938692		3.01084069		4.13380089		-0.00020024		 0.00045936		-0.00033063
O		8.58108786		5.80825965		1.04640075		 0.00020024		-0.00045936		 0.00033063
O		18.38132524		5.80825965		1.54370007		 0.00020024		-0.00045936		-0.00033063
O		1.21914953		3.01084069		3.63650157		-0.00020024		 0.00045936		 0.00033063
O		8.58108786		7.42039086		3.63650157		 0.00020024		 0.00045936		 0.00033063
O		11.01938692		1.39870948		1.54370007		-0.00020024		-0.00045936		-0.00033063
O		1.21914953		1.39870948		1.04640075		-0.00020024		-0.00045936		 0.00033063
O		18.38132524		7.42039086		4.13380089		 0.00020024		 0.00045936		-0.00033063
O		8.47524529		4.26491631		3.57433866		 0.00066510		-0.00030492		-0.00014771
O		11.12522948		4.55418207		1.60586102		-0.00066510		 0.00030492		 0.00014771
O		1.32499209		4.55418207		0.98423784		-0.00066510		 0.00030492		-0.00014771
O		18.27548268		4.26491631		4.19596184		 0.00066510		-0.00030492		 0.00014771
O		11.12522948		8.67446648		4.19596184		-0.00066510		-0.00030492		 0.00014771
O		8.47524529		0.14463386		0.98423784		 0.00066510		 0.00030492		-0.00014771
O		18.27548268		0.14463386		1.60586102		 0.00066510		 0.00030492		 0.00014771
O		1.32499209		8.67446648		3.57433866		-0.00066510		-0.00030492		-0.00014771
O		8.78689284		1.72060612		3.12366102		-0.00069856		 0.00027036		 0.00001077
O		10.81358193		7.09849422		2.05654061		 0.00069856		-0.00027036		-0.00001077
O		1.01334455		7.09849422		0.53356020		 0.00069856		-0.00027036		 0.00001077
O		18.58713023		1.72060612		4.64663947		-0.00069856		 0.00027036		-0.00001077
O		10.81358193		6.13015629		4.64663947		 0.00069856		 0.00027036		-0.00001077
O		8.78689284		2.68894405		0.53356020		-0.00069856		-0.00027036		 0.00001077
O		18.58713023		2.68894405		2.05654061		-0.00069856		-0.00027036		-0.00001077
O		1.01334455		6.13015629		3.12366102		 0.00069856		 0.00027036		 0.00001077
