# total energy = -7658.57725188 eV	

CRYSTAL	
PRIMVEC	
		5.54070013		0.00000000		0.00000000	
		-2.77035006		4.79838483		0.00000000	
		0.00000000		0.00000000		4.72241075	
PRIMCOORD
   15 1	
Mg		0.00000000		0.00000000		0.00000000		0.00000000		-0.00000000		0.00000000	
Mg		0.00000000		3.19892488		0.05147421		0.00000000		0.00000000		 0.00021227	
Mg		2.77035006		1.59946216		4.67093820		0.00000000		0.00000000		-0.00021227	
O		0.91310683		1.60554031		1.03893114		-0.00015078		 0.00017481		-0.00045084	
O		1.85724213		3.19284729		3.68348183		 0.00015078		-0.00017481		 0.00045084	
O		0.92335823		4.78639088		1.03893114		-0.00007600		-0.00021799		-0.00045084	
O		1.84699183		0.01199617		3.68348183		 0.00007600		 0.00021799		 0.00045084	
O		-1.83646506		3.20484235		1.03893114		 0.00022678		 0.00004318		-0.00045084	
O		4.60681512		1.59354414		3.68348183		-0.00022678		-0.00004318		 0.00045084	
H		0.78594776		1.67607730		1.99285797		 0.00027907		 0.00002216		 0.00010719	
H		1.98440231		3.12231030		2.72955500		-0.00027907		-0.00002216		-0.00010719	
H		0.92585099		4.64100013		1.99285797		-0.00015872		 0.00023060		 0.00010719	
H		1.84449907		0.15738691		2.72955500		 0.00015872		-0.00023060		-0.00010719	
H		-1.71179931		3.27969721		1.99285797		-0.00012035		-0.00025276		 0.00010719	
H		4.48214937		1.51868928		2.72955500		 0.00012035		 0.00025276		-0.00010719	
