# total energy = -7658.32245977 eV	

CRYSTAL	
PRIMVEC	
		5.54070013		0.00000000		0.00000000	
		-2.77035006		4.79838483		0.00000000	
		0.00000000		0.00000000		5.20676213	
PRIMCOORD
   15 1	
Mg		0.00000000		0.00000000		0.00000000		0.00000000		-0.00000000		0.00000000	
Mg		0.00000000		3.19892488		0.05675395		0.00000000		0.00000000		-0.00018513	
Mg		2.77035006		1.59946216		5.15000930		0.00000000		0.00000000		 0.00018513	
O		0.91310683		1.60554031		1.14548822		 0.00028776		-0.00016238		-0.00009590	
O		1.85724213		3.19284729		4.06127502		-0.00028776		 0.00016238		 0.00009590	
O		0.92335823		4.78639088		1.14548822		-0.00000325		 0.00033040		-0.00009590	
O		1.84699183		0.01199617		4.06127502		 0.00000325		-0.00033040		 0.00009590	
O		-1.83646506		3.20484235		1.14548822		-0.00028451		-0.00016802		-0.00009590	
O		4.60681512		1.59354414		4.06127502		 0.00028451		 0.00016802		 0.00009590	
H		0.78594776		1.67607730		2.19725384		 0.00050012		-0.00015963		-0.00022871	
H		1.98440231		3.12231030		3.00950885		-0.00050012		 0.00015963		 0.00022871	
H		0.92585099		4.64100013		2.19725384		-0.00011182		 0.00051293		-0.00022871	
H		1.84449907		0.15738691		3.00950885		 0.00011182		-0.00051293		 0.00022871	
H		-1.71179931		3.27969721		2.19725384		-0.00038830		-0.00035329		-0.00022871	
H		4.48214937		1.51868928		3.00950885		 0.00038830		 0.00035329		 0.00022871	
