# total energy = -20636.941091 eV	

CRYSTAL	
PRIMVEC	
		10.05000003		0.00000000		0.00000000	
		0.00000000		5.89375217		0.00000000	
		0.00000000		0.00000000		4.86999886	
PRIMCOORD
   28 1	
Si		3.34665001		0.00000000		4.37666949		 0.00016088		0.00000000		-0.00015037	
Si		6.70335002		0.00000000		0.49333139		-0.00016088		0.00000000		 0.00015037	
Si		8.37165002		2.94687508		4.37666949		 0.00020399		0.00000000		-0.00016103	
Si		1.67835000		2.94687508		0.49333139		-0.00020399		0.00000000		 0.00016103	
Mg		0.00000000		0.00000000		0.00000000		0.00000000		0.00000000		0.00000000	
Mg		5.02500001		2.94687508		0.00000000		0.00000000		0.00000000		0.00000000	
Mg		5.02500001		0.00000000		2.43500044		0.00000000		0.00000000		0.00000000	
Mg		0.00000000		2.94687508		2.43500044		0.00000000		0.00000000		0.00000000	
Mg		2.51250001		1.47343653		2.43500044		-0.00001102		 0.00000007		-0.00000295	
Mg		7.53750002		4.42031161		2.43500044		 0.00001102		-0.00000007		 0.00000295	
Mg		7.53750002		1.47343653		2.43500044		 0.00001102		 0.00000007		 0.00000295	
Mg		2.51250001		4.42031161		2.43500044		-0.00001102		-0.00000007		-0.00000295	
O		8.23497002		0.00000000		1.08113981		-0.00006908		0.00000000		-0.00028716	
O		1.81503001		0.00000000		3.78886006		 0.00006908		0.00000000		 0.00028716	
O		3.20997001		2.94687508		1.08113981		-0.00010200		0.00000000		-0.00027780	
O		6.84003002		2.94687508		3.78886006		 0.00010200		0.00000000		 0.00027780	
O		3.35770501		0.00000000		1.14591105		 0.00007586		0.00000000		 0.00016393	
O		6.69229502		0.00000000		3.72408882		-0.00007586		0.00000000		-0.00016393	
O		8.38270502		2.94687508		1.14591105		 0.00010544		0.00000000		 0.00014774	
O		1.66729500		2.94687508		3.72408882		-0.00010544		0.00000000		-0.00014774	
O		0.91254000		1.59308078		1.09721076		 0.00048480		-0.00017859		 0.00009102	
O		9.13746003		4.30066938		3.77278911		-0.00048480		 0.00017859		-0.00009102	
O		9.13746003		1.59308078		3.77278911		-0.00048480		-0.00017859		-0.00009102	
O		0.91254000		4.30066938		1.09721076		 0.00048480		 0.00017859		 0.00009102	
O		5.93754002		4.53995586		1.09721076		 0.00050728		-0.00017206		 0.00007263	
O		4.11246001		1.35379430		3.77278911		-0.00050728		 0.00017206		-0.00007263	
O		4.11246001		4.53995586		3.77278911		-0.00050728		-0.00017206		-0.00007263	
O		5.93754002		1.35379430		1.09721076		 0.00050728		 0.00017206		 0.00007263	
