# total energy = -24710.6421312 eV	

CRYSTAL	
PRIMVEC	
		9.03899958		0.00000000		0.00000000	
		0.00000000		7.82549581		0.00000000	
		0.00000000		0.00000000		5.08900196	
PRIMCOORD
   40 1	
O		1.09371895		0.67612259		0.29974227		-0.00021394		 0.00068509		 0.00016872	
O		1.09371895		7.14937593		2.84424144		-0.00021394		-0.00068509		 0.00016872	
O		5.61321874		4.58887321		2.24475781		-0.00021394		 0.00068509		-0.00016872	
O		5.61321874		3.23662712		4.78925789		-0.00021394		-0.00068509		-0.00016872	
O		3.40679894		1.92507280		0.53739835		 0.00004433		-0.00000059		-0.00033226	
O		3.40679894		5.90042662		3.08189843		 0.00004433		 0.00000059		-0.00033226	
O		7.92629783		5.83782251		2.00710172		 0.00004433		-0.00000059		 0.00033226	
O		7.92629783		1.98767691		4.55160180		 0.00004433		 0.00000059		 0.00033226	
O		3.23415405		7.51952296		1.40456382		 0.00003386		 0.00068370		 0.00035428	
O		3.23415405		0.30597737		3.94906389		 0.00003386		-0.00068370		 0.00035428	
O		7.75365384		3.60677325		1.13993626		 0.00003386		 0.00068370		-0.00035428	
O		7.75365384		4.21872708		3.68443543		 0.00003386		-0.00068370		-0.00035428	
O		7.93985633		7.11103159		4.45338403		-0.00006944		 0.00060246		-0.00006521	
O		7.93985633		0.71446784		1.90888395		-0.00006944		-0.00060246		-0.00006521	
O		3.42035744		3.19828188		3.18011620		-0.00006944		 0.00060246		 0.00006521	
O		3.42035744		4.62721755		0.63561612		-0.00006944		-0.00060246		 0.00006521	
O		5.61683344		5.94972714		4.87882443		 0.00038093		 0.00021221		 0.00025704	
O		5.61683344		1.87577229		2.33432345		 0.00038093		-0.00021221		 0.00025704	
O		1.09733455		2.03697652		2.75467580		 0.00038093		 0.00021221		-0.00025704	
O		1.09733455		5.78852200		0.21017572		 0.00038093		-0.00021221		-0.00025704	
O		5.84280843		7.44752733		2.86103590		-0.00000479		-0.00033394		 0.00006994	
O		5.84280843		0.37797209		0.31653582		-0.00000479		 0.00033394		 0.00006994	
O		1.32330863		3.53477762		4.77246342		-0.00000479		-0.00033394		-0.00006994	
O		1.32330863		4.29072181		2.22796425		-0.00000479		 0.00033394		-0.00006994	
Si		2.68187118		0.69412195		0.34808826		-0.00015219		 0.00032091		 0.00002967	
Si		2.68187118		7.13137747		2.89258743		-0.00015219		-0.00032091		 0.00002967	
Si		7.20137097		4.60687166		2.19641272		-0.00015219		 0.00032091		-0.00002967	
Si		7.20137097		3.21862776		4.74091189		-0.00015219		-0.00032091		-0.00002967	
Si		6.34447381		7.12433428		4.38671779		-0.00001755		 0.00031328		 0.00019167	
Si		6.34447381		0.70116514		1.84221771		-0.00001755		-0.00031328		 0.00019167	
Si		1.82497402		3.21158457		3.24678153		-0.00001755		 0.00031328		-0.00019167	
Si		1.82497402		4.61391485		0.70228236		-0.00001755		-0.00031328		-0.00019167	
Mg		9.01640118		0.75203121		3.64372378		-0.00016840		-0.00006044		-0.00008236	
Mg		9.01640118		7.07346912		1.09922370		-0.00016840		 0.00006044		-0.00008236	
Mg		4.49690139		4.66478001		3.98977555		-0.00016840		-0.00006044		 0.00008236	
Mg		4.49690139		3.16071851		1.44527638		-0.00016840		 0.00006044		 0.00008236	
Mg		0.05423400		2.05575866		1.09464364		 0.00016717		-0.00026417		 0.00033342	
Mg		0.05423400		5.76974077		3.63914371		 0.00016717		 0.00026417		 0.00033342	
Mg		4.57373379		5.96850746		1.44985553		 0.00016717		-0.00026417		-0.00033342	
Mg		4.57373379		1.85699106		3.99435561		 0.00016717		 0.00026417		-0.00033342	
