# total energy = -2069.1510673 eV

CRYSTAL
PRIMVEC
		2.95429168		0.00000000		0.00000000
		-1.47714584		2.55849031		0.00000000
		0.00000000		0.00000000		2.69217614
PRIMECORD
   2 1
Mg		0.00000000		0.00000000		0.00000000		-0.00000004		 0.00000002		 0.00000004
O		0.00000000		1.70566099		1.34608778		 0.00000004		-0.00000002		-0.00000004
