# total energy = -2069.12888184 eV

CRYSTAL
PRIMVEC
		2.85423150		0.00000000		0.00000000
		-1.42711722		2.47183926		0.00000000
		0.00000000		0.00000000		2.61841713
PRIMECORD
   2 1
Mg		0.00000000		0.00000000		0.00000000		-0.00000004		 0.00000004		 0.00000004
O		0.00000000		1.64789186		1.30920827		 0.00000004		-0.00000004		-0.00000004
