# total energy = -38098.6422082 eV	

CRYSTAL	
PRIMVEC	
		5.83440300		0.00000000		0.00000000	
		0.00000000		11.45999855		0.00000000	
		0.00000000		0.00000000		8.25300226	
PRIMCOORD
   58 1	
O		1.57412193		1.40843422		8.19440385		-0.00055557		 0.00020420		-0.00008993	
O		4.26028107		10.05156608		0.05859608		 0.00055557		-0.00020420		 0.00008993	
O		4.26028107		4.32156622		8.19440385		 0.00055557		-0.00020420		-0.00008993	
O		1.57412193		7.13843408		0.05859608		-0.00055557		 0.00020420		 0.00008993	
O		1.57412193		10.05156608		0.05859608		-0.00055557		-0.00020420		 0.00008993	
O		4.26028107		1.40843422		8.19440385		 0.00055557		 0.00020420		-0.00008993	
O		4.26028107		7.13843408		0.05859608		 0.00055557		 0.00020420		 0.00008993	
O		1.57412193		4.32156622		8.19440385		-0.00055557		-0.00020420		-0.00008993	
O		2.91720092		5.60966997		6.23596687		0.00000000		 0.00036568		-0.00040343	
O		2.91720092		5.85032975		2.01703305		0.00000000		-0.00036568		 0.00040343	
O		2.91720092		0.12032989		6.23596687		0.00000000		-0.00036568		-0.00040343	
O		2.91720092		11.33966983		2.01703305		0.00000000		 0.00036568		 0.00040343	
O		0.00000000		2.86499993		5.91574975		0.00000000		0.00000000		-0.00011893	
O		0.00000000		8.59499979		2.33725017		0.00000000		0.00000000		 0.00011893	
O		0.00000000		2.86499993		1.80493091		0.00000000		0.00000000		 0.00030610	
O		0.00000000		8.59499979		6.44806901		0.00000000		0.00000000		-0.00030610	
O		2.91720092		8.59499979		5.93143087		0.00000000		0.00000000		 0.00015665	
O		2.91720092		2.86499993		2.32156905		0.00000000		0.00000000		-0.00015665	
O		2.91720092		8.59499979		1.78924979		0.00000000		0.00000000		 0.00040263	
O		2.91720092		2.86499993		6.46375013		0.00000000		0.00000000		-0.00040263	
O		0.00000000		11.33966983		2.10946691		0.00000000		 0.00011358		-0.00003069	
O		0.00000000		0.12032989		6.14353418		0.00000000		-0.00011358		 0.00003069	
O		0.00000000		5.85032975		2.10946691		0.00000000		-0.00011358		-0.00003069	
O		0.00000000		5.60966997		6.14353418		0.00000000		 0.00011358		 0.00003069	
O		4.49132285		7.13843408		4.06790388		-0.00066154		-0.00009507		-0.00017328	
O		1.34307899		4.32156622		4.18509604		 0.00066154		 0.00009507		 0.00017328	
O		1.34307899		10.05156608		4.06790388		 0.00066154		 0.00009507		-0.00017328	
O		4.49132285		1.40843422		4.18509604		-0.00066154		-0.00009507		 0.00017328	
O		4.49132285		4.32156622		4.18509604		-0.00066154		 0.00009507		 0.00017328	
O		1.34307899		7.13843408		4.06790388		 0.00066154		-0.00009507		-0.00017328	
O		1.34307899		1.40843422		4.18509604		 0.00066154		-0.00009507		 0.00017328	
O		4.49132285		10.05156608		4.06790388		-0.00066154		 0.00009507		-0.00017328	
H		2.91720092		8.59499979		4.88165024		0.00000000		0.00000000		 0.00055001	
H		2.91720092		2.86499993		3.37135085		0.00000000		0.00000000		-0.00055001	
H		0.00000000		2.86499993		2.85471271		0.00000000		0.00000000		 0.00016835	
H		0.00000000		8.59499979		5.39828721		0.00000000		0.00000000		-0.00016835	
Mg		2.91720092		5.72999986		4.12649996		0.00000000		0.00000000		0.00000000	
Mg		2.91720092		0.00000000		4.12649996		0.00000000		-0.00000000		0.00000000	
Mg		0.00000000		0.00000000		0.00000000		0.00000000		0.00000000		0.00000000	
Mg		0.00000000		5.72999986		0.00000000		0.00000000		0.00000000		0.00000000	
Mg		1.45860075		1.44854399		2.06325027		-0.00038666		 0.00002926		 0.00002939	
Mg		4.37580225		10.01145573		6.18975023		 0.00038666		-0.00002926		-0.00002939	
Mg		4.37580225		4.28145587		2.06325027		 0.00038666		-0.00002926		 0.00002939	
Mg		1.45860075		7.17854385		6.18975023		-0.00038666		 0.00002926		-0.00002939	
Mg		1.45860075		10.01145573		6.18975023		-0.00038666		-0.00002926		-0.00002939	
Mg		4.37580225		1.44854399		2.06325027		 0.00038666		 0.00002926		 0.00002939	
Mg		4.37580225		7.17854385		6.18975023		 0.00038666		 0.00002926		-0.00002939	
Mg		1.45860075		4.28145587		2.06325027		-0.00038666		-0.00002926		 0.00002939	
Mg		0.00000000		2.86499993		8.00623501		0.00000000		0.00000000		 0.00021878	
Mg		0.00000000		8.59499979		0.24676491		0.00000000		0.00000000		-0.00021878	
Si		2.91720092		7.10634603		0.96230018		0.00000000		-0.00026564		 0.00008472	
Si		2.91720092		4.35365427		7.29070091		0.00000000		 0.00026564		-0.00008472	
Si		2.91720092		10.08365413		0.96230018		0.00000000		 0.00026564		 0.00008472	
Si		2.91720092		1.37634617		7.29070091		0.00000000		-0.00026564		-0.00008472	
Si		0.00000000		1.37634617		5.08880014		0.00000000		-0.00026447		-0.00049200	
Si		0.00000000		10.08365413		3.16419978		0.00000000		 0.00026447		 0.00049200	
Si		0.00000000		4.35365427		5.08880014		0.00000000		 0.00026447		-0.00049200	
Si		0.00000000		7.10634603		3.16419978		0.00000000		-0.00026447		 0.00049200	
