# total energy = -38093.4689685 eV	

CRYSTAL	
PRIMVEC	
		5.26519302		0.00000000		0.00000000	
		0.00000000		11.45999798		0.00000000	
		0.00000000		0.00000000		8.25300051	
PRIMCOORD
   58 1	
O		1.42054908		1.40843387		8.19440417		 0.00019606		 0.00027535		 0.00014131	
O		3.84464394		10.05156622		0.05859581		-0.00019606		-0.00027535		-0.00014131	
O		3.84464394		4.32156618		8.19440417		-0.00019606		-0.00027535		 0.00014131	
O		1.42054908		7.13843391		0.05859581		 0.00019606		 0.00027535		-0.00014131	
O		1.42054908		10.05156622		0.05859581		 0.00019606		-0.00027535		-0.00014131	
O		3.84464394		1.40843387		8.19440417		-0.00019606		 0.00027535		 0.00014131	
O		3.84464394		7.13843391		0.05859581		-0.00019606		 0.00027535		-0.00014131	
O		1.42054908		4.32156618		8.19440417		 0.00019606		-0.00027535		 0.00014131	
O		2.63259598		5.60966985		6.23596719		0.00000000		 0.00017995		-0.00014527	
O		2.63259598		5.85033024		2.01703279		0.00000000		-0.00017995		 0.00014527	
O		2.63259598		0.12033019		6.23596719		0.00000000		-0.00017995		-0.00014527	
O		2.63259598		11.33966989		2.01703279		0.00000000		 0.00017995		 0.00014527	
O		0.00000000		2.86500002		5.91575026		0.00000000		0.00000000		-0.00018585	
O		0.00000000		8.59500007		2.33725024		0.00000000		0.00000000		 0.00018585	
O		0.00000000		2.86500002		1.80493081		0.00000000		0.00000000		 0.00045165	
O		0.00000000		8.59500007		6.44806917		0.00000000		0.00000000		-0.00045165	
O		2.63259598		8.59500007		5.93143106		0.00000000		0.00000000		-0.00021431	
O		2.63259598		2.86500002		2.32156892		0.00000000		0.00000000		 0.00021431	
O		2.63259598		8.59500007		1.78925001		0.00000000		0.00000000		 0.00053723	
O		2.63259598		2.86500002		6.46374997		0.00000000		0.00000000		-0.00053723	
O		0.00000000		11.33966989		2.10946694		0.00000000		 0.00000390		 0.00014302	
O		0.00000000		0.12033019		6.14353410		0.00000000		-0.00000390		-0.00014302	
O		0.00000000		5.85033024		2.10946694		0.00000000		-0.00000390		 0.00014302	
O		0.00000000		5.60966985		6.14353410		0.00000000		 0.00000390		-0.00014302	
O		4.05314506		7.13843391		4.06790392		-0.00026005		 0.00017257		-0.00023048	
O		1.21204691		4.32156618		4.18509606		 0.00026005		-0.00017257		 0.00023048	
O		1.21204691		10.05156622		4.06790392		 0.00026005		-0.00017257		-0.00023048	
O		4.05314506		1.40843387		4.18509606		-0.00026005		 0.00017257		 0.00023048	
O		4.05314506		4.32156618		4.18509606		-0.00026005		-0.00017257		 0.00023048	
O		1.21204691		7.13843391		4.06790392		 0.00026005		 0.00017257		-0.00023048	
O		1.21204691		1.40843387		4.18509606		 0.00026005		 0.00017257		 0.00023048	
O		4.05314506		10.05156622		4.06790392		-0.00026005		-0.00017257		-0.00023048	
H		2.63259598		8.59500007		4.88165003		0.00000000		0.00000000		 0.00014489	
H		2.63259598		2.86500002		3.37135100		0.00000000		0.00000000		-0.00014489	
H		0.00000000		2.86500002		2.85471289		0.00000000		0.00000000		 0.00028908	
H		0.00000000		8.59500007		5.39828709		0.00000000		0.00000000		-0.00028908	
Mg		2.63259598		5.73000004		4.12650025		0.00000000		0.00000000		0.00000000	
Mg		2.63259598		0.00000000		4.12650025		0.00000000		0.00000000		0.00000000	
Mg		0.00000000		0.00000000		0.00000000		0.00000000		0.00000000		0.00000000	
Mg		0.00000000		5.73000004		0.00000000		0.00000000		0.00000000		0.00000000	
Mg		1.31629825		1.44854411		2.06325013		-0.00002821		 0.00043961		 0.00009779	
Mg		3.94889424		10.01145598		6.18974985		 0.00002821		-0.00043961		-0.00009779	
Mg		3.94889424		4.28145594		2.06325013		 0.00002821		-0.00043961		 0.00009779	
Mg		1.31629825		7.17854415		6.18974985		-0.00002821		 0.00043961		-0.00009779	
Mg		1.31629825		10.01145598		6.18974985		-0.00002821		-0.00043961		-0.00009779	
Mg		3.94889424		1.44854411		2.06325013		 0.00002821		 0.00043961		 0.00009779	
Mg		3.94889424		7.17854415		6.18974985		 0.00002821		 0.00043961		-0.00009779	
Mg		1.31629825		4.28145594		2.06325013		-0.00002821		-0.00043961		 0.00009779	
Mg		0.00000000		2.86500002		8.00623513		0.00000000		0.00000000		 0.00022765	
Mg		0.00000000		8.59500007		0.24676485		0.00000000		0.00000000		-0.00022765	
Si		2.63259598		7.10634625		0.96229985		0.00000000		 0.00008579		 0.00005400	
Si		2.63259598		4.35365384		7.29070119		0.00000000		-0.00008579		-0.00005400	
Si		2.63259598		10.08365389		0.96229985		0.00000000		-0.00008579		 0.00005400	
Si		2.63259598		1.37634620		7.29070119		0.00000000		 0.00008579		-0.00005400	
Si		0.00000000		1.37634620		5.08880010		0.00000000		 0.00003308		-0.00023303	
Si		0.00000000		10.08365389		3.16419988		0.00000000		-0.00003308		 0.00023303	
Si		0.00000000		4.35365384		5.08880010		0.00000000		-0.00003308		-0.00023303	
Si		0.00000000		7.10634625		3.16419988		0.00000000		 0.00003308		 0.00023303	
