# total energy = -38096.2476386 eV	

CRYSTAL	
PRIMVEC	
		6.26130983		0.00000000		0.00000000	
		0.00000000		11.46000024		0.00000000	
		0.00000000		0.00000000		8.25300118	
PRIMCOORD
   58 1	
O		1.68930077		1.40843406		8.19440408		-0.00078126		-0.00002505		-0.00023874	
O		4.57200906		10.05156556		0.05859584		 0.00078126		 0.00002505		 0.00023874	
O		4.57200906		4.32156606		8.19440408		 0.00078126		 0.00002505		-0.00023874	
O		1.68930077		7.13843355		0.05859584		-0.00078126		-0.00002505		 0.00023874	
O		1.68930077		10.05156556		0.05859584		-0.00078126		 0.00002505		 0.00023874	
O		4.57200906		1.40843406		8.19440408		 0.00078126		-0.00002505		-0.00023874	
O		4.57200906		7.13843355		0.05859584		 0.00078126		-0.00002505		 0.00023874	
O		1.68930077		4.32156606		8.19440408		-0.00078126		 0.00002505		-0.00023874	
O		3.13065491		5.60966964		6.23596655		0.00000000		 0.00045541		-0.00052275	
O		3.13065491		5.85032997		2.01703275		0.00000000		-0.00045541		 0.00052275	
O		3.13065491		0.12032985		6.23596655		0.00000000		-0.00045541		-0.00052275	
O		3.13065491		11.33966976		2.01703275		0.00000000		 0.00045541		 0.00052275	
O		0.00000000		2.86500006		5.91575002		0.00000000		0.00000000		-0.00019141	
O		0.00000000		8.59499956		2.33724991		0.00000000		0.00000000		 0.00019141	
O		0.00000000		2.86500006		1.80493088		0.00000000		0.00000000		-0.00039031	
O		0.00000000		8.59499956		6.44806905		0.00000000		0.00000000		 0.00039031	
O		3.13065491		8.59499956		5.93143084		0.00000000		0.00000000		 0.00031743	
O		3.13065491		2.86500006		2.32156908		0.00000000		0.00000000		-0.00031743	
O		3.13065491		8.59499956		1.78925005		0.00000000		0.00000000		 0.00062656	
O		3.13065491		2.86500006		6.46374987		0.00000000		0.00000000		-0.00062656	
O		0.00000000		11.33966976		2.10946721		0.00000000		 0.00021083		 0.00010184	
O		0.00000000		0.12032985		6.14353396		0.00000000		-0.00021083		-0.00010184	
O		0.00000000		5.85032997		2.10946721		0.00000000		-0.00021083		 0.00010184	
O		0.00000000		5.60966964		6.14353396		0.00000000		 0.00021083		-0.00010184	
O		4.81995693		7.13843355		4.06790412		-0.00032773		-0.00012682		 0.00008866	
O		1.44135415		4.32156606		4.18509580		 0.00032773		 0.00012682		-0.00008866	
O		1.44135415		10.05156556		4.06790412		 0.00032773		 0.00012682		 0.00008866	
O		4.81995693		1.40843406		4.18509580		-0.00032773		-0.00012682		-0.00008866	
O		4.81995693		4.32156606		4.18509580		-0.00032773		 0.00012682		-0.00008866	
O		1.44135415		7.13843355		4.06790412		 0.00032773		-0.00012682		 0.00008866	
O		1.44135415		1.40843406		4.18509580		 0.00032773		-0.00012682		-0.00008866	
O		4.81995693		10.05156556		4.06790412		-0.00032773		 0.00012682		 0.00008866	
H		3.13065491		8.59499956		4.88164962		0.00000000		0.00000000		 0.00084244	
H		3.13065491		2.86500006		3.37135093		0.00000000		0.00000000		-0.00084244	
H		0.00000000		2.86500006		2.85471273		0.00000000		0.00000000		-0.00066997	
H		0.00000000		8.59499956		5.39828657		0.00000000		0.00000000		 0.00066997	
Mg		3.13065491		5.73000012		4.12649996		0.00000000		0.00000000		0.00000000	
Mg		3.13065491		0.00000000		4.12649996		0.00000000		-0.00000000		0.00000000	
Mg		0.00000000		0.00000000		0.00000000		0.00000000		-0.00000000		0.00000000	
Mg		0.00000000		5.73000012		0.00000000		0.00000000		0.00000000		0.00000000	
Mg		1.56532808		1.44854401		2.06324998		-0.00023882		-0.00032830		-0.00026869	
Mg		4.69598300		10.01145561		6.18974994		 0.00023882		 0.00032830		 0.00026869	
Mg		4.69598300		4.28145611		2.06324998		 0.00023882		 0.00032830		-0.00026869	
Mg		1.56532808		7.17854351		6.18974994		-0.00023882		-0.00032830		 0.00026869	
Mg		1.56532808		10.01145561		6.18974994		-0.00023882		 0.00032830		 0.00026869	
Mg		4.69598300		1.44854401		2.06324998		 0.00023882		-0.00032830		-0.00026869	
Mg		4.69598300		7.17854351		6.18974994		 0.00023882		-0.00032830		 0.00026869	
Mg		1.56532808		4.28145611		2.06324998		-0.00023882		 0.00032830		-0.00026869	
Mg		0.00000000		2.86500006		8.00623482		0.00000000		0.00000000		-0.00017730	
Mg		0.00000000		8.59499956		0.24676511		0.00000000		0.00000000		 0.00017730	
Si		3.13065491		7.10634559		0.96230008		0.00000000		-0.00015557		 0.00033334	
Si		3.13065491		4.35365402		7.29070110		0.00000000		 0.00015557		-0.00033334	
Si		3.13065491		10.08365352		0.96230008		0.00000000		 0.00015557		 0.00033334	
Si		3.13065491		1.37634610		7.29070110		0.00000000		-0.00015557		-0.00033334	
Si		0.00000000		1.37634610		5.08880004		0.00000000		-0.00010234		-0.00054305	
Si		0.00000000		10.08365352		3.16419988		0.00000000		 0.00010234		 0.00054305	
Si		0.00000000		4.35365402		5.08880004		0.00000000		 0.00010234		-0.00054305	
Si		0.00000000		7.10634559		3.16419988		0.00000000		-0.00010234		 0.00054305	
