# total energy = -38095.9643941 eV	

CRYSTAL	
PRIMVEC	
		5.40749512		0.00000000		0.00000000	
		0.00000000		11.46000166		0.00000000	
		0.00000000		0.00000000		8.25300016	
PRIMCOORD
   58 1	
O		1.45894218		1.40843401		8.19440400		-0.00024185		 0.00025100		-0.00000954	
O		3.94855293		10.05156602		0.05859616		 0.00024185		-0.00025100		 0.00000954	
O		3.94855293		4.32156627		8.19440400		 0.00024185		-0.00025100		-0.00000954	
O		1.45894218		7.13843430		0.05859616		-0.00024185		 0.00025100		 0.00000954	
O		1.45894218		10.05156602		0.05859616		-0.00024185		-0.00025100		 0.00000954	
O		3.94855293		1.40843401		8.19440400		 0.00024185		 0.00025100		-0.00000954	
O		3.94855293		7.13843430		0.05859616		 0.00024185		 0.00025100		 0.00000954	
O		1.45894218		4.32156627		8.19440400		-0.00024185		-0.00025100		-0.00000954	
O		2.70374810		5.60967000		6.23596717		0.00000000		-0.00013791		-0.00011044	
O		2.70374810		5.85033003		2.01703299		0.00000000		 0.00013791		 0.00011044	
O		2.70374810		0.12032974		6.23596717		0.00000000		 0.00013791		-0.00011044	
O		2.70374810		11.33967029		2.01703299		0.00000000		-0.00013791		 0.00011044	
O		0.00000000		2.86500014		5.91574991		0.00000000		0.00000000		-0.00026767	
O		0.00000000		8.59500043		2.33725025		0.00000000		0.00000000		 0.00026767	
O		0.00000000		2.86500014		1.80493102		0.00000000		0.00000000		 0.00016840	
O		0.00000000		8.59500043		6.44806913		0.00000000		0.00000000		-0.00016840	
O		2.70374810		8.59500043		5.93143110		0.00000000		0.00000000		-0.00051446	
O		2.70374810		2.86500014		2.32156906		0.00000000		0.00000000		 0.00051446	
O		2.70374810		8.59500043		1.78924983		0.00000000		0.00000000		 0.00087508	
O		2.70374810		2.86500014		6.46375033		0.00000000		0.00000000		-0.00087508	
O		0.00000000		11.33967029		2.10946709		0.00000000		-0.00015169		 0.00027905	
O		0.00000000		0.12032974		6.14353415		0.00000000		 0.00015169		-0.00027905	
O		0.00000000		5.85033003		2.10946709		0.00000000		 0.00015169		 0.00027905	
O		0.00000000		5.60967000		6.14353415		0.00000000		-0.00015169		-0.00027905	
O		4.16269028		7.13843430		4.06790392		-0.00053677		 0.00010991		-0.00049979	
O		1.24480483		4.32156627		4.18509624		 0.00053677		-0.00010991		 0.00049979	
O		1.24480483		10.05156602		4.06790392		 0.00053677		-0.00010991		-0.00049979	
O		4.16269028		1.40843401		4.18509624		-0.00053677		 0.00010991		 0.00049979	
O		4.16269028		4.32156627		4.18509624		-0.00053677		-0.00010991		 0.00049979	
O		1.24480483		7.13843430		4.06790392		 0.00053677		 0.00010991		-0.00049979	
O		1.24480483		1.40843401		4.18509624		 0.00053677		 0.00010991		 0.00049979	
O		4.16269028		10.05156602		4.06790392		-0.00053677		-0.00010991		-0.00049979	
H		2.70374810		8.59500043		4.88165028		0.00000000		0.00000000		 0.00060954	
H		2.70374810		2.86500014		3.37135096		0.00000000		0.00000000		-0.00060954	
H		0.00000000		2.86500014		2.85471293		0.00000000		0.00000000		 0.00053214	
H		0.00000000		8.59500043		5.39828723		0.00000000		0.00000000		-0.00053214	
Mg		2.70374810		5.73000029		4.12650008		0.00000000		-0.00000000		0.00000000	
Mg		2.70374810		0.00000000		4.12650008		0.00000000		0.00000000		0.00000000	
Mg		0.00000000		0.00000000		0.00000000		0.00000000		0.00000000		0.00000000	
Mg		0.00000000		5.73000029		0.00000000		0.00000000		0.00000000		0.00000000	
Mg		1.35187378		1.44854411		2.06325031		-0.00040433		 0.00049520		 0.00014112	
Mg		4.05562134		10.01145647		6.18975039		 0.00040433		-0.00049520		-0.00014112	
Mg		4.05562134		4.28145618		2.06325031		 0.00040433		-0.00049520		 0.00014112	
Mg		1.35187378		7.17854440		6.18975039		-0.00040433		 0.00049520		-0.00014112	
Mg		1.35187378		10.01145647		6.18975039		-0.00040433		-0.00049520		-0.00014112	
Mg		4.05562134		1.44854411		2.06325031		 0.00040433		 0.00049520		 0.00014112	
Mg		4.05562134		7.17854440		6.18975039		 0.00040433		 0.00049520		-0.00014112	
Mg		1.35187378		4.28145618		2.06325031		-0.00040433		-0.00049520		 0.00014112	
Mg		0.00000000		2.86500014		8.00623507		0.00000000		0.00000000		 0.00034647	
Mg		0.00000000		8.59500043		0.24676509		0.00000000		0.00000000		-0.00034647	
Si		2.70374810		7.10634623		0.96229999		0.00000000		 0.00000266		 0.00001348	
Si		2.70374810		4.35365435		7.29070125		0.00000000		-0.00000266		-0.00001348	
Si		2.70374810		10.08365410		0.96229999		0.00000000		-0.00000266		 0.00001348	
Si		2.70374810		1.37634594		7.29070125		0.00000000		 0.00000266		-0.00001348	
Si		0.00000000		1.37634594		5.08880007		0.00000000		 0.00013368		-0.00044667	
Si		0.00000000		10.08365410		3.16420009		0.00000000		-0.00013368		 0.00044667	
Si		0.00000000		4.35365435		5.08880007		0.00000000		-0.00013368		-0.00044667	
Si		0.00000000		7.10634623		3.16420009		0.00000000		 0.00013368		 0.00044667	
