# total energy = -14250.0786304 eV	

CRYSTAL	
PRIMVEC	
		8.02607359		0.00000000		0.00000000	
		0.00000000		8.02607359		0.00000000	
		0.00000000		0.00000000		5.16838994	
PRIMCOORD
   24 1	
O		1.17491589		2.83812169		1.24463802		 0.00016687		-0.00016689		-0.00009199	
O		6.85115848		5.18795269		1.24463802		-0.00016688		 0.00016687		-0.00009181	
O		2.83812090		6.85115848		3.92374799		-0.00016679		-0.00016683		 0.00009271	
O		5.18795347		1.17491511		3.92374799		 0.00016680		 0.00016683		 0.00009264	
O		0.65274625		1.49961719		4.04721286		-0.00000666		-0.00020592		 0.00008178	
O		7.37332813		6.52645640		4.04721365		 0.00000665		 0.00020585		 0.00008185	
O		1.49961719		7.37332734		1.12117315		-0.00020626		 0.00000684		-0.00008145	
O		6.52645718		0.65274625		1.12117315		 0.00020623		-0.00000679		-0.00008145	
O		3.36028976		5.51265320		1.12117236		 0.00000683		-0.00020627		-0.00008148	
O		4.66578383		2.51341960		1.12117236		-0.00000683		 0.00020624		-0.00008148	
O		2.51342039		3.36029055		4.04721286		 0.00020599		 0.00000667		 0.00008176	
O		5.51265399		4.66578304		4.04721286		-0.00020589		-0.00000665		 0.00008180	
O		0.00000000		4.01303680		4.21970370		-0.00000002		 0.00000002		 0.00080847	
O		4.01303680		0.00000000		0.94868231		0.00000000		 0.00000003		-0.00080808	
Ca		2.58553038		1.42750484		2.53945428		-0.00004019		 0.00004015		 0.00019427	
Ca		5.44054400		6.59856875		2.53945428		 0.00004018		-0.00004018		 0.00019428	
Ca		1.42750641		5.44054164		2.62893173		 0.00004015		 0.00004019		-0.00019373	
Ca		6.59856796		2.58553195		2.62893173		-0.00004016		-0.00004019		-0.00019373	
Si		1.12541990		2.88761689		4.79714014		-0.00022932		 0.00022928		-0.00023377	
Si		6.90065447		5.13845670		4.79714014		 0.00022932		-0.00022926		-0.00023407	
Si		2.88761689		6.90065369		0.37124665		 0.00022964		 0.00022970		 0.00023185	
Si		5.13845748		1.12541990		0.37124665		-0.00022962		-0.00022968		 0.00023191	
Mg		0.00000000		0.00000000		0.00000000		-0.00000001		-0.00000002		-0.00000016	
Mg		4.01303680		4.01303680		0.00000000		-0.00000002		-0.00000001		-0.00000014	
