# total energy = -11146.2074323 eV

CRYSTAL
PRIMVEC
		7.44099980		0.00000000		0.00000000
		0.00000000		4.07925282		0.00000000
		0.00000000		0.00000000		8.29199718
PRIMECORD
   12 1
Ca		0.14547229		1.01981209		5.64411591		-0.00060130		0.00000000		 0.00058181
Ca		7.29552751		3.05943701		2.64788424		 0.00060130		0.00000000		-0.00058181
Ca		3.57502761		3.05943701		1.49811584		 0.00060130		0.00000000		 0.00058181
Ca		3.86597219		1.01981209		6.79388358		-0.00060130		0.00000000		-0.00058181
Si		2.01346014		1.01981209		3.19739464		-0.00028826		0.00000000		-0.00025720
Si		5.42753966		3.05943701		5.09460478		 0.00028826		0.00000000		 0.00025720
Si		1.70703976		3.05943701		7.34339471		 0.00028826		0.00000000		-0.00025720
Si		5.73396003		1.01981209		0.94860470		-0.00028826		0.00000000		 0.00025720
Mg		1.07254571		1.01981209		0.52919498		-0.00042945		-0.00000000		-0.00058147
Mg		6.36845409		3.05943701		7.76280369		 0.00042945		0.00000000		 0.00058147
Mg		2.64795419		3.05943701		4.67519505		 0.00042945		0.00000000		-0.00058147
Mg		4.79304561		1.01981209		3.61680361		-0.00042945		0.00000000		 0.00058147
