# total energy = -49432.3356583 eV	

CRYSTAL	
PRIMVEC	
		18.23300053		0.72931929		0.00000000	
		0.35276222		8.81909208		0.00000000	
		0.00000000		0.00000000		5.18019610	
PRIMCOORD
   80 1	
Mg		7.09182174		6.04301651		4.48760736		 0.00002701		-0.00013153		-0.00023491	
Mg		11.49394284		3.50540398		0.69259239		-0.00002701		 0.00013153		 0.00023491	
Mg		2.37744257		3.14074433		1.89750749		-0.00002701		 0.00013153		-0.00023491	
Mg		16.20832018		6.40767616		3.28269226		 0.00002701		-0.00013153		 0.00023491	
Mg		11.42628263		1.81390072		3.28269226		 0.00027852		 0.00025629		-0.00037495	
Mg		7.15948012		7.73451977		1.89750749		-0.00027852		-0.00025629		 0.00037495	
Mg		16.27598038		8.09917941		0.69259239		-0.00027852		-0.00025629		-0.00037495	
Mg		2.30978237		1.44923925		4.48760736		 0.00027852		 0.00025629		 0.00037495	
Mg		7.04388352		4.57154623		1.85917480		 0.00000568		-0.00012931		-0.00042460	
Mg		11.54187923		4.97687426		3.32102678		-0.00000568		 0.00012931		 0.00042460	
Mg		2.42538079		4.61221461		4.44927467		-0.00000568		 0.00012931		-0.00042460	
Mg		16.16038196		4.93620588		0.73092690		 0.00000568		-0.00012931		 0.00042460	
Mg		11.70923144		9.16065576		0.73092690		 0.00049765		-0.00067555		-0.00030985	
Mg		6.87653314		0.38776473		4.44927467		-0.00049765		 0.00067555		 0.00030985	
Mg		15.99303158		0.75242438		3.32102678		-0.00049765		 0.00067555		-0.00030985	
Mg		2.59273118		8.79599429		1.85917480		 0.00049765		-0.00067555		 0.00030985	
Si		5.07083470		3.21237886		0.26211737		 0.00021482		-0.00016132		-0.00030842	
Si		13.51492988		6.33604163		4.91808238		-0.00021482		 0.00016132		 0.00030842	
Si		4.39842961		5.97138199		2.85221724		-0.00021482		 0.00016132		-0.00030842	
Si		14.18733314		3.57703850		2.32798251		 0.00021482		-0.00016132		 0.00030842	
Si		13.57969601		7.95522790		2.32798251		 0.00040372		-0.00065298		 0.00021793	
Si		5.00606674		1.59319259		2.85221724		-0.00040372		 0.00065298		-0.00021793	
Si		14.12256518		1.95785224		4.91808238		-0.00040372		 0.00065298		 0.00021793	
Si		4.46319757		7.59056825		0.26211737		 0.00040372		-0.00065298		-0.00021793	
Si		8.75417083		3.32097021		4.13431778		 0.00017524		-0.00051693		 0.00009455	
Si		9.83159192		6.22745028		1.04588196		-0.00017524		 0.00051693		-0.00009455	
Si		0.71509348		5.86279064		1.54421791		-0.00017524		 0.00051693		 0.00009455	
Si		17.87067110		3.68562986		3.63598184		 0.00017524		-0.00051693		-0.00009455	
Si		9.89325414		7.76902777		3.63598184		 0.00022112		-0.00019548		-0.00021948	
Si		8.69250861		1.77939273		1.54421791		-0.00022112		 0.00019548		 0.00021948	
Si		17.80900888		2.14405237		1.04588196		-0.00022112		 0.00019548		-0.00021948	
Si		0.77675570		7.40436812		4.13431778		 0.00022112		-0.00019548		 0.00021948	
O		3.46594176		3.13849806		0.17612747		 0.00061735		-0.00023687		 0.00016816	
O		15.11982099		6.40992244		5.00407228		-0.00061735		 0.00023687		-0.00016816	
O		6.00332255		6.04526279		2.76622734		-0.00061735		 0.00023687		 0.00016816	
O		12.58244203		3.50315770		2.41397240		 0.00061735		-0.00023687		-0.00016816	
O		15.18381343		8.00970788		2.41397240		-0.00030577		 0.00006875		 0.00042964	
O		3.40195115		1.53871261		2.76622734		 0.00030577		-0.00006875		-0.00042964	
O		12.51845141		1.90337226		5.00407228		 0.00030577		-0.00006875		 0.00042964	
O		6.06731317		7.64504823		0.17612747		-0.00030577		 0.00006875		-0.00042964	
O		5.85516132		4.66223671		0.22274821		 0.00013206		-0.00012256		-0.00047715	
O		12.73060325		4.88618561		4.95745153		-0.00013206		 0.00012256		 0.00047715	
O		3.61410299		4.52152414		2.81284809		-0.00013206		 0.00012256		-0.00047715	
O		14.97166159		5.02689635		2.36735166		 0.00013206		-0.00012256		 0.00047715	
O		12.55626770		0.52778571		2.36735166		-0.00004707		 0.00064845		 0.00036042	
O		6.02949688		9.02063478		2.81284809		 0.00004707		-0.00064845		-0.00036042	
O		15.14599714		9.38529442		4.95745153		 0.00004707		-0.00064845		 0.00036042	
O		3.43976743		0.16312424		0.22274821		-0.00004707		 0.00064845		-0.00036042	
O		5.59393626		2.18198727		4.30992702		 0.00019435		-0.00041990		-0.00059906	
O		12.99182649		7.36643323		0.87027455		-0.00019435		 0.00041990		 0.00059906	
O		3.87532623		7.00177358		1.71982715		-0.00019435		 0.00041990		-0.00059906	
O		14.71043653		2.54664691		3.46037442		 0.00019435		-0.00041990		 0.00059906	
O		12.97235450		6.87961880		3.46037442		 0.00094033		 0.00043510		 0.00022215	
O		5.61341008		2.66880169		1.71982715		-0.00094033		-0.00043510		-0.00022215	
O		14.72991034		3.03346133		0.87027455		-0.00094033		-0.00043510		 0.00022215	
O		3.85585423		6.51495916		4.30992702		 0.00094033		 0.00043510		-0.00022215	
O		10.37102506		3.42086476		4.13379955		-0.00020370		-0.00014460		-0.00069229	
O		8.21473769		6.12755573		1.04640020		 0.00020370		 0.00014460		 0.00069229	
O		17.33123613		6.49221537		1.54369968		 0.00020370		 0.00014460		-0.00069229	
O		1.25452662		3.05620512		3.63650007		-0.00020370		-0.00014460		 0.00069229	
O		8.27922281		7.73968748		3.63650007		 0.00031070		-0.00016351		-0.00062084	
O		10.30654176		1.80873301		1.54369968		-0.00031070		 0.00016351		 0.00062084	
O		1.19004150		1.44407336		1.04640020		-0.00031070		 0.00016351		-0.00062084	
O		17.39572308		8.10434713		4.13379955		 0.00031070		-0.00016351		 0.00062084	
O		8.05454583		4.58027405		3.57433786		-0.00008368		 0.00028716		-0.00009317	
O		10.53121875		4.96814462		1.60586189		 0.00008368		-0.00028716		 0.00009317	
O		1.41471848		4.60348497		0.98423799		 0.00008368		-0.00028716		-0.00009317	
O		17.17104427		4.94493552		4.19596176		-0.00008368		 0.00028716		 0.00009317	
O		10.69602907		9.08842819		4.19596176		-0.00000451		-0.00033420		 0.00004811	
O		7.88973369		0.45999048		0.98423799		 0.00000451		 0.00033420		-0.00004811	
O		17.00623395		0.82465013		1.60586189		 0.00000451		 0.00033420		 0.00004811	
O		1.57953063		8.72376854		3.57433786		-0.00000451		-0.00033420		-0.00004811	
O		8.24267838		2.04756099		3.12366095		 0.00031309		-0.00011630		 0.00041294	
O		10.34308619		7.50085950		2.05654062		-0.00031309		 0.00011630		-0.00041294	
O		1.22658593		7.13619985		0.53356107		-0.00031309		 0.00011630		 0.00041294	
O		17.35917865		2.41222064		4.64664050		 0.00031309		-0.00011630		-0.00041294	
O		10.30435205		6.53252245		4.64664050		 0.00001669		-0.00042928		 0.00022077	
O		8.28141252		3.01589804		0.53356107		-0.00001669		 0.00042928		-0.00022077	
O		17.39791096		3.38055768		2.05654062		-0.00001669		 0.00042928		 0.00022077	
O		1.18785179		6.16786281		3.12366095		 0.00001669		-0.00042928		-0.00022077	
