# total energy = -20629.7915291 eV	

CRYSTAL	
PRIMVEC	
		10.05000369		0.00000000		1.60800507	
		0.00000000		5.75000408		0.00000000	
		0.77920426		0.00000000		4.86999863	
PRIMCOORD
   28 1	
Si		4.04691674		0.00000000		4.91213279		-0.00001201		-0.00000000		 0.00026885	
Si		6.78228306		0.00000000		1.56586683		 0.00001201		-0.00000000		-0.00026885	
Si		9.07191655		2.87500001		5.71613329		 0.00000521		0.00000000		 0.00026298	
Si		1.75728326		2.87500001		0.76186735		-0.00000521		0.00000000		-0.00026298	
Mg		0.00000000		0.00000000		0.00000000		0.00000000		0.00000000		0.00000000	
Mg		5.02499981		2.87500001		0.80400050		0.00000000		0.00000000		0.00000000	
Mg		5.41459990		0.00000000		3.23899981		0.00000000		0.00000000		0.00000000	
Mg		0.38960009		2.87500001		2.43500033		0.00000000		0.00000000		0.00000000	
Mg		2.90209949		1.43750000		2.83700007		 0.00002742		 0.00000248		-0.00001002	
Mg		7.92710031		4.31250001		3.64099955		-0.00002742		-0.00000248		 0.00001002	
Mg		7.92710031		1.43750000		3.64099955		-0.00002742		 0.00000248		 0.00001002	
Mg		2.90209949		4.31250001		2.83700007		 0.00002742		-0.00000248		-0.00001002	
O		8.40795277		0.00000000		2.39873470		-0.00010026		-0.00000000		 0.00049739	
O		2.42124703		0.00000000		4.07926493		 0.00010026		-0.00000000		-0.00049739	
O		3.38295296		2.87500001		1.59473522		-0.00012466		-0.00000000		 0.00045385	
O		7.44624786		2.87500001		4.88326542		 0.00012466		-0.00000000		-0.00045385	
O		3.54105126		0.00000000		1.68314389		 0.00008515		0.00000000		-0.00016274	
O		7.28814855		0.00000000		4.79485573		-0.00008515		0.00000000		 0.00016274	
O		8.56605106		2.87500001		2.48714439		 0.00006919		0.00000000		-0.00012255	
O		2.26314874		2.87500001		3.99085625		-0.00006919		0.00000000		 0.00012255	
O		1.08809418		1.55422543		1.24321750		-0.00005003		 0.00048130		-0.00021073	
O		9.74110664		4.19577458		5.23478212		 0.00005003		-0.00048130		 0.00021073	
O		9.74110664		1.55422543		5.23478212		 0.00005003		 0.00048130		 0.00021073	
O		1.08809418		4.19577458		1.24321750		-0.00005003		-0.00048130		-0.00021073	
O		6.11309399		4.42922544		2.04721698		-0.00004581		 0.00049577		-0.00019374	
O		4.71610581		1.32077458		4.43078163		 0.00004581		-0.00049577		 0.00019374	
O		4.71610581		4.42922544		4.43078163		 0.00004581		 0.00049577		 0.00019374	
O		6.11309399		1.32077458		2.04721698		-0.00004581		-0.00049577		-0.00019374	
