# total energy = -4139.06492451 eV

CRYSTAL
PRIMVEC
		3.30778590		0.26462221		0.00000000
		-1.42472239		2.73231680		0.00000000
		0.00000000		0.00000000		4.98288148
PRIMECORD
   4 1
Mg		0.15278004		1.90975205		0.01076209		 0.00090337		 0.00001784		 0.00026312
Mg		1.73028281		1.08718696		2.50220183		-0.00090337		-0.00001784		 0.00026312
O		0.15278004		1.90975205		2.00531204		-0.00037072		 0.00022477		-0.00026312
O		1.73028281		1.08718696		4.49675278		 0.00037072		-0.00022477		-0.00026312
