# total energy = -10069.1324567 eV	

CRYSTAL	
PRIMVEC	
		4.79321805		0.00000000		0.00000000	
		0.00000000		4.79321805		0.00000000	
		0.00000000		0.00000000		4.79321805	
PRIMCOORD
   12 1	
Mg		0.00000000		0.00000966		0.00000000		 0.00000167		-0.00000628		-0.00000498	
Mg		2.39660758		0.00000821		2.39660564		-0.00000007		-0.00000467		 0.00000355	
Mg		0.00000000		2.39660082		2.39660082		 0.00000045		 0.00000471		 0.00000754	
Mg		2.39661144		2.39659937		0.00000579		-0.00000351		 0.00000537		-0.00000601	
O		0.42913853		2.82574658		4.36407856		-0.00000275		-0.00000209		 0.00000191	
O		4.36407663		1.96746857		0.42913997		 0.00000309		 0.00000308		-0.00000385	
O		1.96746760		1.96746808		1.96746808		 0.00000449		 0.00000468		 0.00000493	
O		2.82574658		2.82574610		2.82574658		-0.00000379		-0.00000236		-0.00000251	
O		4.36407711		0.42913997		2.82574755		 0.00000243		-0.00000292		-0.00000181	
O		0.42913901		4.36407759		1.96747002		-0.00000097		 0.00000105		 0.00000192	
O		2.82574707		4.36407759		0.42913901		-0.00000208		 0.00000127		-0.00000260	
O		1.96746857		0.42913997		4.36407663		 0.00000104		-0.00000182		 0.00000190	
