# total energy = -10069.0626774 eV	

CRYSTAL	
PRIMVEC	
		4.98999846		0.00000000		0.00000000	
		0.00000000		4.98999846		0.00000000	
		0.00000000		0.00000000		4.98999846	
PRIMCOORD
   12 1	
Mg		0.00000000		0.00000821		0.00000000		 0.00000210		-0.00000351		-0.00000056	
Mg		2.49500116		0.00000869		2.49499827		-0.00000202		-0.00000360		 0.00000136	
Mg		0.00000000		2.49499392		2.49499295		-0.00000016		 0.00000400		 0.00000229	
Mg		2.49500406		2.49499440		0.00000676		-0.00000214		 0.00000191		-0.00000336	
O		0.43649298		2.93148449		4.55351031		 0.00003801		 0.00003949		-0.00003858	
O		4.55350307		2.05850238		0.43649926		-0.00003627		-0.00003556		 0.00003586	
O		2.05850432		2.05850238		2.05850383		-0.00003611		-0.00003598		-0.00003647	
O		2.93149366		2.93148980		2.93149173		 0.00003624		 0.00003710		 0.00003645	
O		4.55350645		0.43649733		2.93149270		-0.00003701		 0.00003627		 0.00003711	
O		0.43649830		4.55350645		2.05850480		 0.00003538		-0.00003660		-0.00003556	
O		2.93149222		4.55351127		0.43649250		 0.00003727		-0.00003801		 0.00003697	
O		2.05850480		0.43650023		4.55350355		-0.00003530		 0.00003451		-0.00003551	
