# total energy = -10068.8703359 eV	

CRYSTAL	
PRIMVEC	
		5.03655111		0.00000000		0.00000000	
		0.00000000		5.03655111		0.00000000	
		0.00000000		0.00000000		5.03655111	
PRIMCOORD
   12 1	
Mg		0.00000000		0.00000676		0.00000000		-0.00000109		-0.00000195		-0.00000163	
Mg		2.51827507		0.00000000		2.51827411		 0.00000142		-0.00000124		 0.00000015	
Mg		0.00000000		2.51827266		2.51827073		-0.00000050		 0.00000054		 0.00000224	
Mg		2.51827845		2.51826976		0.00000000		-0.00000075		 0.00000253		-0.00000080	
O		0.43798213		2.95625720		4.59856946		 0.00004026		 0.00004100		-0.00004037	
O		4.59856705		2.08029053		0.43798454		-0.00004077		-0.00004104		 0.00004050	
O		2.08029053		2.08028860		2.08029053		-0.00004054		-0.00003984		-0.00004053	
O		2.95625623		2.95625623		2.95625575		 0.00004190		 0.00004171		 0.00004173	
O		4.59856705		0.43798503		2.95626058		-0.00003813		 0.00003783		 0.00003784	
O		0.43798261		4.59857091		2.08029343		 0.00003863		-0.00003933		-0.00003890	
O		2.95625913		4.59856898		0.43798261		 0.00004100		-0.00004155		 0.00004127	
O		2.08029246		0.43798406		4.59856705		-0.00004143		 0.00004131		-0.00004147	
