# total energy = -14248.8344239 eV	

CRYSTAL	
PRIMVEC	
		7.07400006		0.00000000		0.00000000	
		0.00000000		7.85999928		0.00000000	
		0.00000000		0.00000000		5.02399729	
PRIMCOORD
   24 1	
O		0.99453367		2.82496302		1.27780422		-0.00053475		 0.00009608		-0.00036637	
O		6.07946639		5.03503839		1.27780422		 0.00053475		-0.00009608		-0.00036637	
O		2.54246636		6.75496337		3.74619590		 0.00053475		 0.00009608		 0.00036637	
O		4.53153370		1.10503733		3.74619590		-0.00053475		-0.00009608		 0.00036637	
O		0.58586869		1.46384618		3.96062016		-0.00013871		 0.00069691		-0.00009084	
O		6.48813138		6.39615381		3.96062016		 0.00013871		-0.00069691		-0.00009084	
O		1.31746177		7.20903494		1.06337996		-0.00073767		 0.00052809		-0.00007597	
O		5.75653829		0.65096505		1.06337996		 0.00073767		-0.00052809		-0.00007597	
O		2.95113135		5.39384723		1.06337996		 0.00013871		 0.00069691		 0.00009084	
O		4.12286872		2.46615417		1.06337996		-0.00013871		-0.00069691		 0.00009084	
O		2.21953826		3.27903530		3.96062016		 0.00073767		 0.00052809		 0.00007597	
O		4.85446180		4.58096469		3.96062016		-0.00073767		-0.00052809		 0.00007597	
O		0.00000000		3.93000035		4.11616327		0.00000000		0.00000000		-0.00017588	
O		3.53700003		0.00000000		0.90783685		0.00000000		0.00000000		 0.00017588	
Ca		2.34617701		1.32313724		2.54686710		 0.00013616		 0.00014068		 0.00021113	
Ca		4.72782305		6.53686275		2.54686710		-0.00013616		-0.00014068		 0.00021113	
Ca		1.19082302		5.25313688		2.47713302		-0.00013616		 0.00014068		-0.00021113	
Ca		5.88317704		2.60686311		2.47713302		 0.00013616		-0.00014068		-0.00021113	
Si		0.98972335		2.83030672		4.69934879		 0.00012825		 0.00045163		-0.00012196	
Si		6.08427671		5.02969327		4.69934879		-0.00012825		-0.00045163		-0.00012196	
Si		2.54727668		6.76030777		0.32465133		-0.00012825		 0.00045163		 0.00012196	
Si		4.52672338		1.09969292		0.32465133		 0.00012825		-0.00045163		 0.00012196	
Mg		0.00000000		0.00000000		0.00000000		0.00000000		0.00000000		-0.00066211	
Mg		3.53700003		3.93000035		0.00000000		0.00000000		0.00000000		 0.00066211	
