# total energy = -22452.0584457 eV	

CRYSTAL	
PRIMVEC	
		9.05300003		-0.36211964		0.00000000	
		-0.30707869		7.67700339		0.00000000	
		-0.52464221		0.02098351		4.72194297	
PRIMCOORD
   40 1	
Ca		6.62488493		0.25237296		0.42544709		 0.00022874		-0.00034215		 0.00027109	
Ca		1.59639058		7.08349249		4.29649588		-0.00022874		 0.00034215		-0.00027109	
Ca		1.97079772		4.27089527		1.93552530		 0.00003133		 0.00007078		-0.00002699	
Ca		6.25047870		3.06497109		2.78641857		-0.00003133		-0.00007078		 0.00002699	
Mg		1.92889774		1.18062436		1.90388785		-0.00004600		-0.00027834		-0.00085100	
Mg		6.29237868		6.15524200		2.81805602		 0.00004600		 0.00027834		 0.00085100	
Mg		6.60745666		4.82583945		0.45708363		-0.00020061		 0.00010002		-0.00010405	
Mg		1.61381886		2.51002601		4.26485843		 0.00020061		-0.00010002		 0.00010405	
Si		4.33054516		1.09912117		2.18484315		 0.00019300		-0.00010847		 0.00026995	
Si		3.89073216		6.23674519		2.53709981		-0.00019300		 0.00010847		-0.00026995	
Si		4.20464318		4.93651570		0.17612833		 0.00000559		-0.00000673		-0.00027783	
Si		4.01663325		2.39934975		4.54581464		-0.00000559		 0.00000673		 0.00027783	
Si		-0.11445528		6.55254617		1.24375973		-0.00000132		-0.00002350		 0.00010861	
Si		8.33573080		0.78332019		3.47818414		 0.00000132		 0.00002350		-0.00010861	
Si		8.53399601		2.37424926		1.11721175		-0.00050168		 0.00039329		 0.00083927	
Si		-0.31271959		4.96161619		3.60473122		 0.00050168		-0.00039329		-0.00083927	
O		3.45294503		1.15951854		0.53310719		 0.00046059		-0.00012049		-0.00060857	
O		4.76833049		6.17634692		4.18883578		-0.00046059		 0.00012049		 0.00060857	
O		5.08021563		4.92678682		1.82786429		-0.00007105		 0.00010612		-0.00078717	
O		3.14106079		2.40907864		2.89407867		 0.00007105		-0.00010612		 0.00078717	
O		3.34912647		3.56885992		0.40467105		-0.00022904		 0.00040486		-0.00017209	
O		4.87214995		3.76700554		4.31727282		 0.00022904		-0.00040486		 0.00017209	
O		4.99131113		7.33553113		1.95630134		-0.00034398		 0.00016096		 0.00010227	
O		3.22996530		0.00033523		2.76564163		 0.00034398		-0.00016096		-0.00010227	
O		5.34094304		2.03365675		1.26217558		 0.00040528		-0.00013159		-0.00011460	
O		2.88033248		5.30220780		3.45976830		-0.00040528		 0.00013159		 0.00011460	
O		3.11612249		5.95500890		1.09879591		 0.00057025		 0.00028437		-0.00057032	
O		5.10515303		1.38085655		3.62314706		-0.00057025		-0.00028437		 0.00057032	
O		1.06833991		2.65218116		1.02371733		 0.00078641		-0.00006580		 0.00005808	
O		7.15293560		4.68368520		3.69822564		-0.00078641		 0.00006580		-0.00005808	
O		7.35285975		6.23315734		1.33725415		-0.00047785		-0.00013729		 0.00013614	
O		0.86841668		1.10270721		3.38468881		 0.00047785		 0.00013729		-0.00013614	
O		0.84308515		0.18778705		0.93636122		-0.00069398		 0.00053838		-0.00019873	
O		7.37819036		7.14807841		3.78558175		 0.00069398		-0.00053838		 0.00019873	
O		7.77630361		3.74281651		1.42461026		-0.00053453		-0.00000540		 0.00033213	
O		0.44497190		3.59304894		3.29733270		 0.00053453		 0.00000540		-0.00033213	
O		0.72535188		5.40526983		0.32817455		-0.00080921		 0.00018914		-0.00059884	
O		7.49592364		1.93059563		4.39376751		 0.00080921		-0.00018914		 0.00059884	
O		7.78342677		1.29058939		2.03279694		-0.00004857		 0.00028165		 0.00004360	
O		0.43784965		6.04527697		2.68914694		 0.00004857		-0.00028165		-0.00004360	
