# total energy = -22445.8986813 eV	

CRYSTAL	
PRIMVEC	
		9.05300144		-1.08635798		0.00000000	
		-0.92124105		7.67700270		0.00000000	
		-0.52464676		0.06295943		4.72193939	
PRIMCOORD
   40 1	
Ca		6.58342877		-0.27927638		0.42544713		 0.00039753		 0.00014198		-0.00028607	
Ca		1.02368668		6.93287324		4.29649591		-0.00039753		-0.00014198		 0.00028607	
Ca		1.62226177		4.09929018		1.93552530		 0.00007800		 0.00020589		-0.00004378	
Ca		5.98485459		2.55430759		2.78641865		-0.00007800		-0.00020589		 0.00004378	
Mg		1.82811404		1.02228069		1.90388784		 0.00033068		 0.00063415		 0.00017591	
Mg		5.77900232		5.63131617		2.81805610		-0.00033068		-0.00063415		-0.00017591	
Mg		6.19959322		4.28092883		0.45708367		-0.00019377		 0.00005906		-0.00065980	
Mg		1.40752313		2.37266802		4.26485936		 0.00019377		-0.00005906		 0.00065980	
Si		4.22859363		0.74859999		2.18484284		-0.00006196		-0.00057009		-0.00011565	
Si		3.37852181		5.90499778		2.53710019		 0.00006196		 0.00057009		 0.00011565	
Si		3.79561325		4.58378332		0.17612777		 0.00011944		-0.00010869		-0.00005645	
Si		3.81150402		2.06981445		4.54581527		-0.00011944		 0.00010869		 0.00005645	
Si		-0.63913172		6.54071483		1.24376022		-0.00001344		 0.00055529		-0.00039389	
Si		8.24624808		0.11288203		3.47818373		 0.00001344		-0.00055529		 0.00039389	
Si		8.31639976		1.68282592		1.11721221		 0.00001362		 0.00059124		 0.00019515	
Si		-0.70928340		4.97077094		3.60473082		-0.00001362		-0.00059124		-0.00019515	
O		3.34896781		0.87912434		0.53310731		 0.00010358		-0.00018743		-0.00005158	
O		4.25814764		5.77447343		4.18883573		-0.00010358		 0.00018743		 0.00005158	
O		4.66915832		4.50392741		1.82786421		 0.00019010		-0.00022610		 0.00025246	
O		2.93795804		2.14967035		2.89407882		-0.00019010		 0.00022610		-0.00025246	
O		3.05242568		3.28906106		0.40467097		-0.00003830		-0.00000254		-0.00006493	
O		4.55469068		3.36453579		4.31727298		 0.00003830		 0.00000254		 0.00006493	
O		4.38753133		6.91207520		1.95630055		 0.00016262		-0.00001962		-0.00027109	
O		3.21958594		-0.25847743		2.76564158		-0.00016262		 0.00001962		 0.00027109	
O		5.16087196		1.59917877		1.26217574		-0.00016117		-0.00004779		 0.00024513	
O		2.44624531		5.05441809		3.45976821		 0.00016117		 0.00004779		-0.00024513	
O		2.62897173		5.68623266		1.09879578		 0.00054394		 0.00013661		 0.00001163	
O		4.97814463		0.96736511		3.62314726		-0.00054394		-0.00013661		-0.00001163	
O		0.85240237		2.55807604		1.02371677		-0.00028859		 0.00037417		-0.00061616	
O		6.75471490		4.09552082		3.69822627		 0.00028859		-0.00037417		 0.00061616	
O		6.82984133		5.62400904		1.33725384		-0.00048559		-0.00038642		-0.00018410	
O		0.77727594		1.02958781		3.38468919		 0.00048559		 0.00038642		 0.00018410	
O		0.82533573		0.11963022		0.93636135		-0.00008580		-0.00063536		 0.00028116	
O		6.78177971		6.53396663		3.78558169		 0.00008580		 0.00063536		-0.00028116	
O		7.45147480		3.10771874		1.42461017		 0.00008817		 0.00022488		 0.00025366	
O		0.15564156		3.54587811		3.29733286		-0.00008817		-0.00022488		-0.00025366	
O		0.28991338		5.32982390		0.32817503		-0.00002455		 0.00026055		-0.00006015	
O		7.31720389		1.32377295		4.39376801		 0.00002455		-0.00026055		 0.00006015	
O		7.65506674		0.66278004		2.03279740		-0.00018854		 0.00070288		 0.00004942	
O		-0.04795129		5.99081682		2.68914655		 0.00018854		-0.00070288		-0.00004942	
