# total energy = -24714.8791212 eV	

CRYSTAL	
PRIMVEC	
		9.61326956		0.00000000		0.00000000	
		0.00000000		8.16077182		0.00000000	
		-1.62743040		0.00000000		4.91196737	
PRIMCOORD
   40 1	
Mg		2.03778627		5.33225087		1.07424827		 0.00017348		-0.00088255		-0.00005410	
Mg		5.94805577		2.82852480		3.83772199		-0.00017348		 0.00088255		 0.00005410	
Mg		6.76177001		1.25186303		1.38173734		-0.00017348		-0.00088255		 0.00005410	
Mg		1.22407203		6.90891263		3.53023291		 0.00017348		 0.00088255		-0.00005410	
Mg		2.11556628		0.09874462		1.06000332		-0.00070330		-0.00027112		-0.00067408	
Mg		5.87027576		8.06203008		3.85196693		 0.00070330		 0.00027112		 0.00067408	
Mg		6.68399000		4.17913245		1.39598229		 0.00070330		-0.00027112		 0.00067408	
Mg		1.30185204		3.98164225		3.51598797		-0.00070330		 0.00027112		-0.00067408	
Si		-0.04067759		2.77139891		1.46327614		 0.00005371		-0.00042141		-0.00015534	
Si		8.02651963		5.38937676		3.44869412		-0.00005371		 0.00042141		 0.00015534	
Si		8.84023387		6.85178674		0.99270851		-0.00005371		-0.00042141		 0.00015534	
Si		-0.85439087		1.30898797		3.91926078		 0.00005371		 0.00042141		-0.00015534	
Si		4.94609063		6.83628150		1.11108824		-0.00018220		 0.00000919		 0.00016305	
Si		3.03975044		1.32449417		3.80088202		 0.00018220		-0.00000919		-0.00016305	
Si		3.85346468		2.75589366		1.34489737		 0.00018220		 0.00000919		-0.00016305	
Si		4.13237736		5.40488200		3.56707192		-0.00018220		-0.00000919		 0.00016305	
O		8.04909831		2.78200811		0.92295944		 0.00046229		 0.00044474		-0.00035394	
O		-0.06325724		5.37876659		3.98901082		-0.00046229		-0.00044474		 0.00035394	
O		0.75045700		6.86239594		1.53302617		-0.00046229		 0.00044474		 0.00035394	
O		7.23538503		1.29837876		3.37894408		 0.00046229		-0.00044474		-0.00035394	
O		0.68054066		4.08528387		1.57576004		-0.00044133		 0.00019886		-0.00003598	
O		7.30530042		4.07549179		3.33621022		 0.00044133		-0.00019886		 0.00003598	
O		8.11901466		0.00489604		0.88022461		 0.00044133		 0.00019886		 0.00003598	
O		-0.13317262		8.15587867		4.03174469		-0.00044133		-0.00019886		-0.00003598	
O		0.00731378		2.29317816		3.00710762		-0.00001748		 0.00006974		-0.00011408	
O		7.97852730		5.86759751		1.90486167		 0.00001748		-0.00006974		 0.00011408	
O		7.16481402		6.37356599		4.36084632		 0.00001748		 0.00006974		 0.00011408	
O		0.82102802		1.78720967		0.55112298		-0.00001748		-0.00006974		-0.00011408	
O		3.39361874		6.83791383		0.62922310		 0.00009263		 0.00037108		-0.00013551	
O		4.59222234		1.32286184		4.28274716		-0.00009263		-0.00037108		 0.00013551	
O		5.40593658		2.75752600		1.82676155		-0.00009263		 0.00037108		 0.00013551	
O		2.57990450		5.40324967		3.08520775		 0.00009263		-0.00037108		-0.00013551	
O		5.47592118		7.96818150		1.95791058		 0.00028541		 0.00066124		-0.00017459	
O		2.50992086		0.19259416		2.95405872		-0.00028541		-0.00066124		 0.00017459	
O		3.32363510		3.88779367		0.49807407		-0.00028541		 0.00066124		 0.00017459	
O		4.66220790		4.27298200		4.41389619		 0.00028541		-0.00066124		-0.00017459	
O		5.07876145		5.67173867		2.20203571		-0.00044320		-0.00015981		 0.00009808	
O		2.90707963		2.48903699		2.70993358		 0.00044320		 0.00015981		-0.00009808	
O		3.72079387		1.59135084		0.25394894		 0.00044320		-0.00015981		-0.00009808	
O		4.26504817		6.56942386		4.65802036		-0.00044320		 0.00015981		 0.00009808	
