# total energy = -24715.5600731 eV	

CRYSTAL	
PRIMVEC	
		9.61326956		0.00000000		0.00000000	
		0.00000000		9.70470136		0.00000000	
		-1.62743040		0.00000000		4.91196737	
PRIMCOORD
   40 1	
Mg		2.03778627		6.34105488		1.07424827		 0.00003646		 0.00051192		 0.00000771	
Mg		5.94805577		3.36365129		3.83772199		-0.00003646		-0.00051192		-0.00000771	
Mg		6.76177001		1.48870227		1.38173734		-0.00003646		 0.00051192		-0.00000771	
Mg		1.22407203		8.21600390		3.53023291		 0.00003646		-0.00051192		 0.00000771	
Mg		2.11556628		0.11742705		1.06000332		 0.00016659		-0.00083182		 0.00033226	
Mg		5.87027576		9.58727816		3.85196693		-0.00016659		 0.00083182		-0.00033226	
Mg		6.68399000		4.96977965		1.39598229		-0.00016659		-0.00083182		-0.00033226	
Mg		1.30185204		4.73492556		3.51598797		 0.00016659		 0.00083182		 0.00033226	
Si		-0.04067759		3.29571816		1.46327614		 0.00006420		-0.00034156		-0.00020980	
Si		8.02651963		6.40898801		3.44869412		-0.00006420		 0.00034156		 0.00020980	
Si		8.84023387		8.14807077		0.99270851		-0.00006420		-0.00034156		 0.00020980	
Si		-0.85439087		1.55663540		3.91926078		 0.00006420		 0.00034156		-0.00020980	
Si		4.94609063		8.12963156		1.11108824		-0.00037839		 0.00045309		 0.00026717	
Si		3.03975044		1.57507365		3.80088202		 0.00037839		-0.00045309		-0.00026717	
Si		3.85346468		3.27727895		1.34489737		 0.00037839		 0.00045309		-0.00026717	
Si		4.13237736		6.42742626		3.56707192		-0.00037839		-0.00045309		 0.00026717	
O		8.04909831		3.30833366		0.92295944		-0.00042184		 0.00005715		 0.00026543	
O		-0.06325724		6.39637155		3.98901082		 0.00042184		-0.00005715		-0.00026543	
O		0.75045700		8.16068626		1.53302617		 0.00042184		 0.00005715		-0.00026543	
O		7.23538503		1.54401895		3.37894408		-0.00042184		-0.00005715		 0.00026543	
O		0.68054066		4.85817536		1.57576004		 0.00016340		-0.00032050		-0.00047294	
O		7.30530042		4.84652985		3.33621022		-0.00016340		 0.00032050		 0.00047294	
O		8.11901466		0.00582276		0.88022461		-0.00016340		-0.00032050		 0.00047294	
O		-0.13317262		9.69888341		4.03174469		 0.00016340		 0.00032050		-0.00047294	
O		0.00731378		2.72702213		3.00710762		 0.00073180		 0.00005787		-0.00010080	
O		7.97852730		6.97768404		1.90486167		-0.00073180		-0.00005787		 0.00010080	
O		7.16481402		7.57937570		4.36084632		-0.00073180		 0.00005787		 0.00010080	
O		0.82102802		2.12533047		0.55112298		 0.00073180		-0.00005787		-0.00010080	
O		3.39361874		8.13157248		0.62922310		-0.00078448		 0.00066661		 0.00057166	
O		4.59222234		1.57313273		4.28274716		 0.00078448		-0.00066661		-0.00057166	
O		5.40593658		3.27921987		1.82676155		 0.00078448		 0.00066661		-0.00057166	
O		2.57990450		6.42548534		3.08520775		-0.00078448		-0.00066661		 0.00057166	
O		5.47592118		9.47567483		1.95791058		 0.00010787		 0.00026742		 0.00000573	
O		2.50992086		0.22903134		2.95405872		-0.00010787		-0.00026742		-0.00000573	
O		3.32363510		4.62332223		0.49807407		-0.00010787		 0.00026742		-0.00000573	
O		4.66220790		5.08138395		4.41389619		 0.00010787		-0.00026742		 0.00000573	
O		5.07876145		6.74477086		2.20203571		 0.00010995		-0.00051669		 0.00021771	
O		2.90707963		2.95993531		2.70993358		-0.00010995		 0.00051669		-0.00021771	
O		3.72079387		1.89241826		0.25394894		-0.00010995		-0.00051669		-0.00021771	
O		4.26504817		7.81228888		4.65802036		 0.00010995		 0.00051669		 0.00021771	
