# total energy = -20636.8925196 eV	

CRYSTAL	
PRIMVEC	
		10.30124966		0.00000000		0.00000000	
		0.00000000		5.75000304		0.00000000	
		0.00000000		0.00000000		4.86999819	
PRIMCOORD
   28 1	
Si		3.43031614		0.00000000		4.37666928		 0.00047294		-0.00000000		 0.00004970	
Si		6.87093352		0.00000000		0.49333097		-0.00047294		-0.00000000		-0.00004970	
Si		8.58094097		2.87499946		4.37666928		 0.00050751		0.00000000		 0.00003912	
Si		1.72030869		2.87499946		0.49333097		-0.00050751		0.00000000		-0.00003912	
Mg		0.00000000		0.00000000		0.00000000		0.00000000		0.00000000		0.00000000	
Mg		5.15062483		2.87499946		0.00000000		0.00000000		0.00000000		0.00000000	
Mg		5.15062483		0.00000000		2.43500012		0.00000000		0.00000000		0.00000000	
Mg		0.00000000		2.87499946		2.43500012		0.00000000		0.00000000		0.00000000	
Mg		2.57531242		1.43750025		2.43500012		-0.00000728		 0.00000210		 0.00000146	
Mg		7.72593725		4.31249971		2.43500012		 0.00000728		-0.00000210		-0.00000146	
Mg		7.72593725		1.43750025		2.43500012		 0.00000728		 0.00000210		-0.00000146	
Mg		2.57531242		4.31249971		2.43500012		-0.00000728		-0.00000210		 0.00000146	
O		8.44084500		0.00000000		1.08113984		-0.00029810		0.00000000		 0.00000621	
O		1.86040569		0.00000000		3.78885937		 0.00029810		0.00000000		-0.00000621	
O		3.29021914		2.87499946		1.08113984		-0.00032923		-0.00000000		 0.00001338	
O		7.01103052		2.87499946		3.78885937		 0.00032923		-0.00000000		-0.00001338	
O		3.44164751		0.00000000		1.14591101		-0.00018452		0.00000000		-0.00014392	
O		6.85960215		0.00000000		3.72408923		 0.00018452		0.00000000		 0.00014392	
O		8.59227234		2.87499946		1.14591101		-0.00015893		-0.00000000		-0.00015807	
O		1.70897732		2.87499946		3.72408923		 0.00015893		0.00000000		 0.00015807	
O		0.93535347		1.55422474		1.09721082		-0.00069986		 0.00017636		 0.00022947	
O		9.36589619		4.19577522		3.77278839		 0.00069986		-0.00017636		-0.00022947	
O		9.36589619		1.55422474		3.77278839		 0.00069986		 0.00017636		-0.00022947	
O		0.93535347		4.19577522		1.09721082		-0.00069986		-0.00017636		 0.00022947	
O		6.08597830		4.42922523		1.09721082		-0.00067669		 0.00017882		 0.00021343	
O		4.21527136		1.32077473		3.77278839		 0.00067669		-0.00017882		-0.00021343	
O		4.21527136		4.42922523		3.77278839		 0.00067669		 0.00017882		-0.00021343	
O		6.08597830		1.32077473		1.09721082		-0.00067669		-0.00017882		 0.00021343	
