# total energy = -9075.62379853 eV	

CRYSTAL	
PRIMVEC	
		5.02736362		0.00000000		0.00501595	
		0.00000000		5.08618472		0.00000000	
		0.00332352		0.00000000		7.20412281	
PRIMCOORD
   28 1	
Mg		3.78092890		2.58628476		1.81500481		 0.00023283		-0.00015424		-0.00043011	
Mg		1.24975568		0.04319240		5.39413498		-0.00023290		-0.00015423		 0.00043012	
Si		1.26336011		0.03952682		1.79833610		 0.00027184		 0.00039450		-0.00022488	
Si		3.76732447		2.58261918		5.41080420		-0.00027176		 0.00039457		 0.00022472	
O		1.89370820		4.89942925		3.45934098		 0.00006701		-0.00023898		-0.00024817	
O		3.13697536		2.35633536		3.74979881		-0.00006541		-0.00023612		 0.00024858	
O		4.40953035		2.76691576		7.06949386		 0.00000646		-0.00041789		 0.00013710	
O		0.62115525		0.22382187		0.13964643		-0.00001020		-0.00041124		-0.00013775	
O		4.46100495		4.15191754		4.94496448		-0.00006822		-0.00003536		 0.00040712	
O		0.56967962		1.60882620		2.26417531		 0.00006743		-0.00003634		-0.00040682	
O		2.19868263		3.37932505		5.88768668		-0.00053858		 0.00065117		 0.00000266	
O		2.83200092		0.83623269		1.32145362		 0.00054001		 0.00065060		-0.00000231	
O		4.74123607		4.33790298		2.29311392		 0.00001327		 0.00025361		-0.00087104	
O		0.28944799		1.79481062		4.91602638		-0.00001367		 0.00025365		 0.00087164	
O		1.99176928		3.56363595		1.31578472		-0.00057458		-0.00081315		 0.00028421	
O		3.03891479		1.02054307		5.89335557		 0.00057477		-0.00081304		-0.00028421	
H		2.33672918		4.02759711		3.53150778		-0.00037909		-0.00033525		 0.00037869	
H		2.69395591		1.48450475		3.67763200		 0.00037763		-0.00033785		-0.00037893	
H		4.87745161		3.62680932		7.11824063		-0.00088559		 0.00045693		-0.00044855	
H		0.15323143		1.08371901		0.09089916		 0.00088900		 0.00045107		 0.00044889	
H		1.49199545		2.74826010		5.57570628		-0.00011997		-0.00033460		-0.00029575	
H		3.53868913		0.20516774		1.63343402		 0.00011911		-0.00033389		 0.00029539	
H		3.87542359		4.89303992		5.28009240		-0.00010112		 0.00023574		 0.00000213	
H		1.15526048		2.34994756		1.92904790		 0.00010177		 0.00023653		-0.00000248	
H		4.65418554		4.35884572		3.28488047		-0.00012313		 0.00019800		-0.00047524	
H		0.37649852		1.81575387		3.92426034		 0.00012319		 0.00019801		 0.00047475	
H		2.03636983		3.47839699		0.31738495		 0.00035502		 0.00013893		 0.00004387	
H		2.99431424		0.93530412		6.89175484		-0.00035512		 0.00013888		-0.00004361	
