# total energy = -22451.991842 eV

CRYSTAL
PRIMVEC
		9.05300002		0.00000000		0.00000000
		0.00000000		7.67699834		0.30707776
		-0.52464851		0.18888179		4.72194523
PRIMECORD
   40 1
Ca		6.64561268		0.53521517		0.44617530		 0.00032849		 0.00044661		 0.00012043
Ca		1.88274336		7.33066224		4.58284769		-0.00032849		-0.00044661		-0.00012043
Ca		2.14506490		4.43411777		2.10979260		-0.00030416		-0.00012915		-0.00019232
Ca		6.38329114		3.43175874		2.91923129		 0.00030416		 0.00012915		 0.00019232
Mg		1.97928999		1.33595121		1.95427926		 0.00036026		-0.00059110		 0.00047919
Mg		6.54906696		6.52992711		3.07474373		-0.00036026		 0.00059110		-0.00047919
Mg		6.81138940		5.11657908		0.66101566		 0.00022977		 0.00005624		-0.00018259
Mg		1.71696845		2.74929924		4.36800823		-0.00022977		-0.00005624		 0.00018259
Si		4.38151984		1.36177580		2.23581942		 0.00003889		 0.00032344		 0.00012782
Si		4.14683711		6.50410161		2.79320538		-0.00003889		-0.00032344		-0.00012782
Si		4.40915865		5.11992688		0.38064425		 0.00008983		-0.00021401		 0.00011378
Si		4.11919830		2.74595144		4.64837964		-0.00008983		 0.00021401		-0.00011378
Si		0.14788438		6.60821202		1.50609782		 0.00011434		 0.00032666		-0.00021214
Si		8.38047347		1.25766630		3.52292517		-0.00011434		-0.00032666		 0.00021214
Si		8.64279501		2.76465041		1.22600977		-0.00021401		 0.00004190		 0.00057028
Si		-0.11443807		5.10122791		3.80301322		 0.00021401		-0.00004190		-0.00057028
O		3.50493414		1.32104002		0.58509630		 0.00035140		 0.00045639		-0.00038989
O		5.02342190		6.54483740		4.44392669		-0.00035140		-0.00045639		 0.00038989
O		5.28574434		5.21133140		2.03339343		-0.00006812		-0.00066910		-0.00062632
O		3.24261170		2.65454692		2.99563137		 0.00006812		 0.00066910		 0.00062632
O		3.49747718		3.72494558		0.55302061		-0.00038816		 0.00060628		-0.00012690
O		5.03087976		4.14093183		4.47600328		 0.00038816		-0.00060628		 0.00012690
O		5.29320220		7.62551121		2.25819119		-0.00000548		 0.00028348		 0.00016871
O		3.23515474		0.24036711		2.77083180		 0.00000548		-0.00028348		-0.00016871
O		5.43097891		2.30138305		1.35221131		-0.00056236		 0.00043445		 0.00005243
O		3.09737713		5.56449436		3.67681168		 0.00056236		-0.00043445		-0.00005243
O		3.35969867		6.13334776		1.34237160		-0.00043545		-0.00013419		 0.00023211
O		5.16865737		1.73252965		3.68665139		 0.00043545		 0.00013419		-0.00023211
O		1.17630971		2.74018196		1.13168656		 0.00023147		-0.00081393		 0.00087240
O		7.35204724		5.12569636		3.89733733		-0.00023147		 0.00081393		-0.00087240
O		7.61436878		6.59122316		1.59876433		 0.00026454		 0.00021029		-0.00043738
O		0.91398817		1.27465426		3.43025956		-0.00026454		-0.00021029		 0.00043738
O		0.85195973		0.25931956		0.94523641		-0.00017260		 0.00037315		-0.00005485
O		7.67639631		7.60655785		4.08378658		 0.00017260		-0.00037315		 0.00005485
O		7.93871785		4.11734967		1.58702531		 0.00032667		 0.00064089		 0.00016887
O		0.58963819		3.74852774		3.44199768		-0.00032667		-0.00064089		-0.00016887
O		0.94307183		5.45611999		0.54589500		-0.00009969		-0.00058123		-0.00025913
O		7.58528420		2.40975833		4.48312890		 0.00009969		 0.00058123		 0.00025913
O		7.84760574		1.68580530		2.09697627		 0.00002611		-0.00027667		 0.00004700
O		0.68075029		6.18007301		2.93204672		-0.00002611		 0.00027667		-0.00004700
