# total energy = -2552.85028751 eV

CRYSTAL
PRIMVEC
		3.20106613		0.00000000		0.00000000
		-1.60053464		2.77220517		0.00000000
		0.00000000		0.00000000		4.79338758
PRIMECORD
   5 1
Mg		0.00000000		0.00000000		0.00000000		-0.00000000		-0.00000001		-0.00000534
O		0.00000000		1.84813709		1.04227733		-0.00000001		 0.00000003		 0.00015836
O		1.60053369		0.92406870		3.75104301		 0.00000001		-0.00000002		 0.00007865
H		0.00000000		1.84813741		2.00763348		 0.00000001		-0.00000001		-0.00020989
H		1.60053369		0.92406870		2.78581851		-0.00000001		 0.00000001		-0.00002178
