# total energy = -2552.30391645 eV

CRYSTAL
PRIMVEC
		3.44219575		0.00000000		0.00000000
		-1.72109945		2.98102875		0.00000000
		0.00000000		0.00000000		6.30080592
PRIMECORD
   5 1
Mg		0.00000000		0.00000000		0.00000000		-0.00000002		-0.00000005		 0.00000264
O		0.00000000		1.98735187		0.98199178		-0.00000004		 0.00000011		-0.00128585
O		1.72109851		0.99367594		5.31884901		 0.00000007		-0.00000004		 0.00115473
H		0.00000000		1.98735376		1.94542660		 0.00000003		-0.00000007		 0.00124656
H		1.72109945		0.99367468		4.35534193		-0.00000004		 0.00000005		-0.00111808
