# total energy = -2552.59927955 eV

CRYSTAL
PRIMVEC
		3.27263146		0.00000000		0.00000000
		-1.63631573		2.83418111		0.00000000
		0.00000000		0.00000000		5.98925779
PRIMECORD
   5 1
Mg		0.00000000		0.00000000		-0.00000943		-0.00000000		0.00000000		 0.00004477
O		0.00000000		1.88945408		1.02124133		-0.00000001		 0.00000007		-0.00045750
O		1.63631541		0.94472892		4.96833538		 0.00000001		-0.00000007		-0.00071702
H		0.00000000		1.88945502		1.98336876		 0.00000002		-0.00000003		 0.00054058
H		1.63631573		0.94472829		4.00558238		-0.00000002		 0.00000003		 0.00058917
