# total energy = -2552.79355649 eV

CRYSTAL
PRIMVEC
		3.08837203		0.00000000		0.00000000
		-1.54418601		2.67460838		0.00000000
		0.00000000		0.00000000		4.36686427
PRIMECORD
   5 1
Mg		0.00000000		0.00000000		0.00000000		 0.00000001		-0.00000000		-0.00000064
O		0.00000000		1.78307351		1.03824332		-0.00000000		-0.00000002		-0.00000541
O		1.54418664		0.89153644		3.32860430		-0.00000001		 0.00000001		 0.00006609
H		0.00000000		1.78307319		2.00322934		 0.00000001		-0.00000001		 0.00001551
H		1.54418664		0.89153644		2.36365284		-0.00000000		 0.00000001		-0.00007555
