# total energy = -2552.48120299 eV

CRYSTAL
PRIMVEC
		3.35012574		0.00000000		0.00000000
		-1.67506287		2.90129423		0.00000000
		0.00000000		0.00000000		6.18252848
PRIMECORD
   5 1
Mg		0.00000000		0.00000000		0.00000471		-0.00000001		-0.00000003		-0.00001624
O		0.00000000		1.93419489		1.00215117		-0.00000006		 0.00000014		-0.00028128
O		1.67506287		0.96709870		5.18025540		 0.00000006		-0.00000009		 0.00073328
H		0.00000000		1.93419741		1.96509803		 0.00000004		-0.00000008		 0.00039321
H		1.67506381		0.96709713		4.21755079		-0.00000003		 0.00000005		-0.00082898
