# total energy = -2552.86084744 eV

CRYSTAL
PRIMVEC
		3.13686879		0.00000000		0.00000000
		-1.56843597		2.71660748		0.00000000
		0.00000000		0.00000000		4.49472166
PRIMECORD
   5 1
Mg		0.00000000		0.00000000		0.00000000		-0.00000000		-0.00000000		-0.00000331
O		0.00000000		1.81107249		1.04091936		0.00000000		-0.00000000		-0.00013871
O		1.56843471		0.90553625		3.45373004		0.00000000		 0.00000001		 0.00039302
H		0.00000000		1.81107249		2.00639710		0.00000000		-0.00000001		 0.00001605
H		1.56843471		0.90553625		2.48839714		-0.00000000		 0.00000001		-0.00026706
