# total energy = -2552.83227002 eV

CRYSTAL
PRIMVEC
		3.11176422		0.00000000		0.00000000
		-1.55588054		2.69486485		0.00000000
		0.00000000		0.00000000		4.42027826
PRIMECORD
   5 1
Mg		0.00000000		0.00000000		0.00000000		-0.00000000		-0.00000002		-0.00000106
O		0.00000000		1.79657719		1.03896503		 0.00000001		 0.00000001		 0.00030940
O		1.55588148		0.89828828		3.38129469		-0.00000001		 0.00000001		-0.00024572
H		0.00000000		1.79657719		2.00434789		0.00000000		-0.00000001		-0.00016781
H		1.55588179		0.89828828		2.41594796		-0.00000000		 0.00000001		 0.00010520
