# total energy = -2552.7473692 eV

CRYSTAL
PRIMVEC
		3.06721380		0.00000000		0.00000000
		-1.53360690		2.65628423		0.00000000
		0.00000000		0.00000000		4.32315591
PRIMECORD
   5 1
Mg		0.00000000		0.00000000		0.00000000		0.00000000		-0.00000000		-0.00000032
O		0.00000000		1.77085647		1.03718321		 0.00000001		-0.00000002		 0.00004425
O		1.53360659		0.88542808		3.28596768		-0.00000001		 0.00000002		-0.00002783
H		0.00000000		1.77085647		2.00187074		0.00000000		-0.00000001		-0.00000625
H		1.53360659		0.88542776		2.32128925		-0.00000000		 0.00000001		-0.00000985
