# total energy = -34528.7607287 eV	

CRYSTAL	
PRIMVEC	
		9.34399714		-0.74751790		0.00000000	
		-0.42463553		5.30800042		0.00000000	
		-0.48050370		0.03844217		13.28131530	
PRIMCOORD
   56 1	
Si		1.05370730		2.44090816		4.82257733		-0.00007772		-0.00011457		 0.00017225	
Si		7.38514779		2.15801185		8.45873422		 0.00007772		 0.00011457		-0.00017225	
Si		7.64340494		1.91373299		1.81807938		-0.00019700		-0.00053603		-0.00040276	
Si		0.79545016		2.68518796		11.46323123		 0.00019700		 0.00053603		 0.00040276	
Si		5.51338716		4.72114755		4.82257733		 0.00008584		 0.00006245		 0.00001355	
Si		2.92546793		-0.12222754		8.45873422		-0.00008584		-0.00006245		-0.00001355	
Si		2.75908485		4.94149309		1.81807938		-0.00006557		-0.00053968		-0.00052415	
Si		5.67977118		-0.34257214		11.46323123		 0.00006557		 0.00053968		 0.00052415	
Mg		4.21942802		2.29945954		6.64065484		0.00000000		0.00000000		0.00000000	
Mg		4.45967986		2.28024033		0.00000000		0.00000000		0.00000000		0.00000000	
Mg		-0.24025185		0.01922015		6.64065484		0.00000000		0.00000000		0.00000000	
Mg		0.00000000		0.00000000		0.00000000		0.00000000		0.00000000		0.00000000	
O		0.37133487		1.09735290		4.97119508		-0.00004584		 0.00030190		-0.00040180	
O		8.06752116		3.50156711		8.31011554		 0.00004584		-0.00030190		 0.00040180	
O		8.55092138		0.44298579		1.66946070		 0.00022555		-0.00058502		-0.00006506	
O		-0.11206629		4.15593422		11.61184992		-0.00022555		 0.00058502		 0.00006506	
O		4.83101473		3.37759322		4.97119508		-0.00013646		 0.00017321		-0.00037599	
O		3.60784130		1.22132679		8.31011554		 0.00013646		-0.00017321		 0.00037599	
O		3.66660223		3.47074589		1.66946070		 0.00019345		-0.00056129		-0.00004698	
O		4.77225380		1.12817413		11.61184992		-0.00019345		 0.00056129		 0.00004698	
O		2.46777081		2.22441153		5.63791599		-0.00020053		 0.00054549		 0.00063916	
O		5.97108522		2.37450754		7.64339369		 0.00020053		-0.00054549		-0.00063916	
O		6.24598751		1.92215540		1.00273885		-0.00028381		 0.00003579		-0.00030184	
O		2.19286758		2.67676461		12.27857176		 0.00028381		-0.00003579		 0.00030184	
O		6.92744974		4.50465280		5.63791599		-0.00024243		 0.00053886		 0.00063863	
O		1.51140535		0.09426815		7.64339369		 0.00024243		-0.00053886		-0.00063863	
O		1.36166836		4.94991456		1.00273885		-0.00032855		 0.00003431		-0.00030901	
O		7.07718767		-0.35099455		12.27857176		 0.00032855		-0.00003431		 0.00030901	
O		0.11281807		3.62688990		5.65518169		 0.00050713		 0.00030837		 0.00012538	
O		8.32603796		0.97203011		7.62612893		-0.00050713		-0.00030837		-0.00012538	
O		8.40543637		2.96348078		0.98547315		-0.00057207		-0.00012621		-0.00010680	
O		0.03341872		1.63544017		12.29583653		 0.00057207		 0.00012621		 0.00010680	
O		4.99713815		0.59912981		5.65518169		 0.00048219		 0.00032070		 0.00014283	
O		3.44171788		3.99979021		7.62612893		-0.00048219		-0.00032070		-0.00014283	
O		3.94575651		0.68324139		0.98547315		-0.00063405		-0.00018162		-0.00005671	
O		4.49309859		3.91567956		12.29583653		 0.00063405		 0.00018162		 0.00005671	
O		1.20613458		2.99567152		3.35087493		-0.00038069		 0.00058313		 0.00007171	
O		7.23272051		1.60324755		9.93043568		 0.00038069		-0.00058313		-0.00007171	
O		7.39968008		2.50018935		3.28978084		 0.00051324		-0.00015534		-0.00059161	
O		1.03917595		2.09873160		9.99152977		-0.00051324		 0.00015534		 0.00059161	
O		6.09045467		-0.03208764		3.35087493		-0.00041384		 0.00053786		 0.00021133	
O		2.34840136		4.63100765		9.93043568		 0.00041384		-0.00053786		-0.00021133	
O		2.94000021		0.21994902		3.28978084		 0.00049100		-0.00013443		-0.00051477	
O		5.49885582		4.37897193		9.99152977		-0.00049100		 0.00013443		 0.00051477	
Ca		1.38756457		2.42052847		1.18761466		 0.00034503		 0.00017686		-0.00005218	
Ca		7.05129052		2.17839154		12.09369595		-0.00034503		-0.00017686		 0.00005218	
Ca		7.30852779		1.94685175		5.45304111		 0.00012828		 0.00014859		-0.00018568	
Ca		1.13032730		2.65206920		7.82826950		-0.00012828		-0.00014859		 0.00018568	
Ca		5.84724443		4.70076880		1.18761466		 0.00032644		 0.00017706		-0.00005215	
Ca		2.59161066		-0.10184785		12.09369595		-0.00032644		-0.00017706		 0.00005215	
Ca		2.42420771		4.97461185		5.45304111		 0.00010995		 0.00015884		-0.00018018	
Ca		6.01464645		-0.37569090		7.82826950		-0.00010995		-0.00015884		 0.00018018	
Ca		-0.51465921		4.94127280		3.32032836		 0.00028846		 0.00005189		 0.00036186	
Ca		-0.39048471		0.40516698		9.96098319		-0.00028846		-0.00005189		-0.00036186	
Ca		4.36966088		1.91351271		3.32032836		 0.00030895		 0.00004373		 0.00034145	
Ca		4.06919515		2.68540824		9.96098319		-0.00030895		-0.00004373		-0.00034145	
