# total energy = -34521.1708804 eV	

CRYSTAL	
PRIMVEC	
		9.34400334		-1.49504470		0.00000000	
		-0.84928108		5.30800436		0.00000000	
		-0.48050446		0.07688563		13.28131428	
PRIMCOORD
   56 1	
Si		0.85039012		2.34034570		4.82257733		-0.00048264		-0.00075508		 0.00042560	
Si		7.16382579		1.54949392		8.45873410		 0.00048264		 0.00075508		-0.00042560	
Si		7.44008699		1.28599526		1.81807886		 0.00002791		 0.00001047		-0.00036533	
Si		0.57412797		2.60384625		11.46323163		-0.00002791		-0.00001047		 0.00036533	
Si		5.09775031		4.24682553		4.82257733		-0.00051486		-0.00075698		 0.00037324	
Si		2.91646560		-0.35698591		8.45873410		 0.00051486		 0.00075698		-0.00037324	
Si		2.34344762		4.68751506		1.81807886		 0.00013190		 0.00001684		-0.00037676	
Si		5.67076829		-0.79767355		11.46323163		-0.00013190		-0.00001684		 0.00037676	
Mg		4.00710795		1.94491981		6.64065525		0.00000000		0.00000000		0.00000000	
Mg		4.24736018		1.90647983		0.00000000		0.00000000		0.00000000		0.00000000	
Mg		-0.24025223		0.03843998		6.64065525		0.00000000		0.00000000		0.00000000	
Mg		0.00000000		0.00000000		0.00000000		0.00000000		0.00000000		0.00000000	
O		0.28058856		1.06038679		4.97119513		 0.00005835		 0.00050907		 0.00056375	
O		7.73362735		2.82945378		8.31011630		-0.00005835		-0.00050907		-0.00056375	
O		8.46017624		-0.24834675		1.66946106		-0.00026116		-0.00030861		 0.00053315	
O		-0.44596128		4.13818826		11.61184943		 0.00026116		 0.00030861		-0.00053315	
O		4.52794874		2.96686662		4.97119513		 0.00007088		 0.00052310		 0.00055981	
O		3.48626717		0.92297395		8.31011630		-0.00007088		-0.00052310		-0.00055981	
O		3.36353593		3.15317305		1.66946106		-0.00027116		-0.00028666		 0.00053448	
O		4.65067903		0.73666752		11.61184943		 0.00027116		 0.00028666		-0.00053448	
O		2.27277624		2.01139063		5.63791612		-0.00031836		-0.00025064		-0.00003607	
O		5.74143967		1.87844899		7.64339342		 0.00031836		 0.00025064		 0.00003607	
O		6.05099306		1.40687556		1.00273912		 0.00033993		 0.00087547		 0.00064291	
O		1.96322285		2.48296406		12.27857137		-0.00033993		-0.00087547		-0.00064291	
O		6.52013548		3.91787047		5.63791612		-0.00030223		-0.00025335		-0.00002992	
O		1.49408043		-0.02802990		7.64339342		 0.00030223		 0.00025335		 0.00002992	
O		0.95435275		4.80839726		1.00273912		 0.00033470		 0.00088245		 0.00064356	
O		7.05986222		-0.91855574		12.27857137		-0.00033470		-0.00088245		-0.00064356	
O		-0.17992942		3.59444454		5.65518203		 0.00055857		 0.00012036		 0.00092838	
O		8.19414533		0.29539602		7.62612846		-0.00055857		-0.00012036		-0.00092838	
O		8.11269008		2.26762561		0.98547321		-0.00067513		 0.00014735		 0.00004004	
O		-0.09847417		1.62221496		12.29583728		 0.00067513		-0.00014735		-0.00004004	
O		4.91671090		0.19292474		5.65518203		 0.00056200		 0.00011239		 0.00093507	
O		3.09750501		3.69691582		7.62612846		-0.00056200		-0.00011239		-0.00093507	
O		3.86532990		0.36114578		0.98547321		-0.00072908		 0.00012504		 0.00003638	
O		4.14888601		3.52869479		12.29583728		 0.00072908		-0.00012504		-0.00003638	
O		0.95716889		2.87926431		3.35087464		 0.00020089		 0.00055151		 0.00029438	
O		7.05704702		1.01057625		9.93043585		-0.00020089		-0.00055151		-0.00029438	
O		7.15071407		1.88829697		3.28978061		-0.00052537		 0.00040738		-0.00013336	
O		0.86350184		2.00154360		9.99152989		 0.00052537		-0.00040738		 0.00013336	
O		6.05380826		-0.52225643		3.35087464		 0.00021768		 0.00055733		 0.00032382	
O		1.96040671		4.41209605		9.93043585		-0.00021768		-0.00055733		-0.00032382	
O		2.90335388		-0.01818286		3.28978061		-0.00054829		 0.00040344		-0.00010893	
O		5.11086203		3.90802437		9.99152989		 0.00054829		-0.00040344		 0.00010893	
Ca		1.18373784		2.29321694		1.18761477		-0.00031489		 0.00006610		-0.00006577	
Ca		6.83047807		1.59662268		12.09369572		 0.00031489		-0.00006610		 0.00006577	
Ca		7.10470097		1.34586291		5.45304048		-0.00003349		-0.00009369		 0.00027951	
Ca		0.90951494		2.54397766		7.82827002		 0.00003349		 0.00009369		-0.00027951	
Ca		5.43109802		4.19969677		1.18761477		-0.00030801		 0.00006994		-0.00004354	
Ca		2.58311788		-0.30985620		12.09369572		 0.00030801		-0.00006994		 0.00004354	
Ca		2.00806066		4.74738271		5.45304048		-0.00003890		-0.00009902		 0.00026789	
Ca		6.00615525		-0.85754214		7.82827002		 0.00003890		 0.00009902		-0.00026789	
Ca		-0.90919225		4.95088313		3.32032762		 0.00037236		-0.00026670		 0.00040713	
Ca		-0.42059233		0.43399835		9.96098287		-0.00037236		 0.00026670		-0.00040713	
Ca		4.18744806		1.54936333		3.32032762		 0.00036951		-0.00027736		 0.00038844	
Ca		3.82676785		2.34047818		9.96098287		-0.00036951		 0.00027736		-0.00038844	
