# total energy = -34528.7607294 eV	

CRYSTAL	
PRIMVEC	
		9.34399714		0.74751790		0.00000000	
		0.42463553		5.30800042		0.00000000	
		-0.48050370		-0.03844217		13.28131530	
PRIMCOORD
   56 1	
Si		1.46034316		2.64203168		4.82257733		 0.00015079		-0.00054151		 0.00044572	
Si		7.82779237		3.37504729		8.45873422		-0.00015079		 0.00054151		-0.00044572	
Si		8.05003986		3.16920779		1.81807938		 0.00000946		-0.00004160		-0.00011143	
Si		1.23809474		2.84787117		11.46323123		-0.00000946		 0.00004160		 0.00011143	
Si		6.34466325		5.66979177		4.82257733		 0.00011919		-0.00054255		 0.00047378	
Si		2.94347322		0.34728719		8.45873422		-0.00011919		 0.00054255		-0.00047378	
Si		3.59036094		5.44944811		1.81807938		-0.00002289		-0.00000497		-0.00007545	
Si		5.69777460		0.56763085		11.46323123		 0.00002289		 0.00000497		 0.00007545	
Mg		4.64406824		3.00853995		6.64065484		0.00000000		0.00000000		0.00000000	
Mg		4.88432009		3.02776010		0.00000000		0.00000000		0.00000000		0.00000000	
Mg		-0.24025185		-0.01922015		6.64065484		0.00000000		0.00000000		0.00000000	
Mg		0.00000000		0.00000000		0.00000000		0.00000000		0.00000000		0.00000000	
O		0.55282578		1.17128635		4.97119508		-0.00021208		-0.00057396		 0.00005604	
O		8.73530975		4.84579355		8.31011554		 0.00021208		 0.00057396		-0.00005604	
O		8.73241323		1.82565252		1.66946070		 0.00008933		 0.00024360		 0.00038750	
O		0.55572231		4.19142644		11.61184992		-0.00008933		-0.00024360		-0.00038750	
O		5.43714587		4.19904551		4.97119508		-0.00020441		-0.00056803		 0.00005191	
O		3.85098967		1.81803439		8.31011554		 0.00020441		 0.00056803		-0.00005191	
O		4.27273243		4.10589285		1.66946070		 0.00010786		 0.00021746		 0.00038201	
O		5.01540311		1.91118705		11.61184992		-0.00010786		-0.00021746		-0.00038201	
O		2.85775965		2.65045502		5.63791599		 0.00030627		 0.00003503		 0.00030815	
O		6.43037588		3.36662488		7.64339369		-0.00030627		-0.00003503		-0.00030815	
O		6.63597729		2.95271209		1.00273885		 0.00021754		 0.00054669		-0.00063901	
O		2.65215825		3.06436687		12.27857176		-0.00021754		-0.00054669		 0.00063901	
O		7.74207974		5.67821512		5.63791599		 0.00031734		 0.00003469		 0.00031016	
O		1.54605580		0.33886478		7.64339369		-0.00031734		-0.00003469		-0.00031016	
O		2.17629648		5.23295148		1.00273885		 0.00022474		 0.00054528		-0.00064000	
O		7.11183811		0.78412654		12.27857176		-0.00022474		-0.00054528		 0.00064000	
O		0.69831079		3.69178134		5.65518169		 0.00058727		-0.00014514		 0.00009078	
O		8.58982381		2.32529856		7.62612893		-0.00058727		 0.00014514		-0.00009078	
O		8.99093003		4.35518953		0.98547315		-0.00049923		 0.00031470		-0.00013237	
O		0.29720644		1.66189037		12.29583653		 0.00049923		-0.00031470		 0.00013237	
O		5.15799066		1.41154007		5.65518169		 0.00060188		-0.00015841		 0.00007899	
O		4.13014488		4.60553889		7.62612893		-0.00060188		 0.00015841		-0.00007899	
O		4.10660995		1.32743037		0.98547315		-0.00049408		 0.00031712		-0.00013602	
O		5.18152465		4.68964953		12.29583653		 0.00049408		-0.00031712		 0.00013602	
O		1.70406802		3.22848897		3.35087493		-0.00050646		-0.00014840		 0.00055860	
O		7.58406751		2.78859093		9.93043568		 0.00050646		 0.00014840		-0.00055860	
O		7.89761258		3.72397208		3.28978084		 0.00039356		 0.00056917		-0.00012661	
O		1.39052296		2.29310781		9.99152977		-0.00039356		-0.00056917		 0.00012661	
O		6.16374789		0.94824864		3.35087493		-0.00050107		-0.00014356		 0.00054062	
O		3.12438765		5.06883126		9.93043568		 0.00050107		 0.00014356		-0.00054062	
O		3.01329249		0.69621199		3.28978084		 0.00040060		 0.00055930		-0.00015737	
O		6.27484304		5.32086791		9.99152977		-0.00040060		-0.00055930		 0.00015737	
Ca		1.79521937		2.67515137		1.18761466		-0.00012363		 0.00015218		 0.00018418	
Ca		7.49291617		3.34192759		12.09369595		 0.00012363		-0.00015218		-0.00018418	
Ca		7.71618259		3.14882809		5.45304111		-0.00033764		 0.00017660		 0.00005498	
Ca		1.57195294		2.86825087		7.82826950		 0.00033764		-0.00017660		-0.00005498	
Ca		6.67953945		5.70291147		1.18761466		-0.00011996		 0.00015423		 0.00018314	
Ca		2.60859608		0.31416843		12.09369595		 0.00011996		-0.00015423		-0.00018314	
Ca		3.25650273		5.42906842		5.45304111		-0.00033305		 0.00017666		 0.00005499	
Ca		6.03163281		0.58801054		7.82826950		 0.00033305		-0.00017666		-0.00005499	
Ca		0.27440736		4.92205266		3.32032836		-0.00029741		 0.00004580		-0.00034909	
Ca		-0.33027083		0.34750654		9.96098319		 0.00029741		-0.00004580		 0.00034909	
Ca		4.73408722		2.64181327		3.32032836		-0.00030192		 0.00004409		-0.00034447	
Ca		4.55404925		3.37526663		9.96098319		 0.00030192		-0.00004409		 0.00034447	
