# total energy = -14249.5694541 eV	

CRYSTAL	
PRIMVEC	
		7.85999966		0.00000000		0.00000000	
		0.00000000		7.85999966		0.00000000	
		0.00000000		0.00000000		4.64720122	
PRIMCOORD
   24 1	
O		1.10503657		2.82496326		1.18196867		 0.00020885		-0.00020885		 0.00072294	
O		6.75496309		5.03503797		1.18196867		-0.00020885		 0.00020885		 0.00072294	
O		2.82496326		6.75496309		3.46523098		-0.00020885		-0.00020885		-0.00072294	
O		5.03503797		1.10503657		3.46523098		 0.00020885		 0.00020885		-0.00072294	
O		0.65096517		1.46384555		3.66357414		 0.00057780		 0.00044787		-0.00054183	
O		7.20903449		6.39615411		3.66357414		-0.00057780		-0.00044787		-0.00054183	
O		1.46384555		7.20903449		0.98362708		 0.00044787		-0.00057780		 0.00054183	
O		6.39615411		0.65096517		0.98362708		-0.00044787		 0.00057780		 0.00054183	
O		3.27903466		5.39384695		0.98362708		-0.00057780		 0.00044787		 0.00054183	
O		4.58096500		2.46615428		0.98362708		 0.00057780		-0.00044787		 0.00054183	
O		2.46615428		3.27903466		3.66357414		-0.00044787		-0.00057780		-0.00054183	
O		5.39384695		4.58096500		3.66357414		 0.00044787		 0.00057780		-0.00054183	
O		0.00000000		3.92999983		3.80745064		0.00000000		0.00000000		-0.00086638	
O		3.92999983		0.00000000		0.83974900		0.00000000		0.00000000		 0.00086638	
Ca		2.60686321		1.32313662		2.35585176		-0.00023463		 0.00023463		 0.00060953	
Ca		5.25313645		6.53686304		2.35585176		 0.00023463		-0.00023463		 0.00060953	
Ca		1.32313662		5.25313645		2.29134789		 0.00023463		 0.00023463		-0.00060953	
Ca		6.53686304		2.60686321		2.29134789		-0.00023463		-0.00023463		-0.00060953	
Si		1.09969334		2.83030649		4.34689814		-0.00059891		 0.00059891		-0.00023024	
Si		6.76030789		5.02969317		4.34689814		 0.00059891		-0.00059891		-0.00023024	
Si		2.83030649		6.76030789		0.30030229		 0.00059891		 0.00059891		 0.00023024	
Si		5.02969317		1.09969334		0.30030229		-0.00059891		-0.00059891		 0.00023024	
Mg		0.00000000		0.00000000		0.00000000		0.00000000		0.00000000		0.00000000	
Mg		3.92999983		3.92999983		0.00000000		0.00000000		0.00000000		0.00000000	
