# total energy = -14249.3159578 eV	

CRYSTAL	
PRIMVEC	
		7.85999966		0.00000000		0.00000000	
		0.00000000		7.85999966		0.00000000	
		0.00000000		0.00000000		5.52639720	
PRIMCOORD
   24 1	
O		1.10503657		2.82496326		1.40558487		-0.00033703		 0.00033703		 0.00007024	
O		6.75496309		5.03503797		1.40558487		 0.00033703		-0.00033703		 0.00007024	
O		2.82496326		6.75496309		4.12081547		 0.00033703		 0.00033703		-0.00007024	
O		5.03503797		1.10503657		4.12081547		-0.00033703		-0.00033703		-0.00007024	
O		0.65096517		1.46384555		4.35668148		 0.00029272		 0.00069065		 0.00003605	
O		7.20903449		6.39615411		4.35668148		-0.00029272		-0.00069065		 0.00003605	
O		1.46384555		7.20903449		1.16971808		 0.00069065		-0.00029272		-0.00003605	
O		6.39615411		0.65096517		1.16971808		-0.00069065		 0.00029272		-0.00003605	
O		3.27903466		5.39384695		1.16971808		-0.00029272		 0.00069065		-0.00003605	
O		4.58096500		2.46615428		1.16971808		 0.00029272		-0.00069065		-0.00003605	
O		2.46615428		3.27903466		4.35668148		-0.00069065		-0.00029272		 0.00003605	
O		5.39384695		4.58096500		4.35668148		 0.00069065		 0.00029272		 0.00003605	
O		0.00000000		3.92999983		4.52777953		0.00000000		0.00000000		 0.00052409	
O		3.92999983		0.00000000		0.99862082		0.00000000		0.00000000		-0.00052409	
Ca		2.60686321		1.32313662		2.80155304		-0.00020041		 0.00020041		-0.00031374	
Ca		5.25313645		6.53686304		2.80155304		 0.00020041		-0.00020041		-0.00031374	
Ca		1.32313662		5.25313645		2.72484652		 0.00020041		 0.00020041		 0.00031374	
Ca		6.53686304		2.60686321		2.72484652		-0.00020041		-0.00020041		 0.00031374	
Si		1.09969334		2.83030649		5.16928362		-0.00069936		 0.00069936		-0.00028350	
Si		6.76030789		5.02969317		5.16928362		 0.00069936		-0.00069936		-0.00028350	
Si		2.83030649		6.76030789		0.35711594		 0.00069936		 0.00069936		 0.00028350	
Si		5.02969317		1.09969334		0.35711594		-0.00069936		-0.00069936		 0.00028350	
Mg		0.00000000		0.00000000		0.00000000		0.00000000		0.00000000		0.00000000	
Mg		3.92999983		3.92999983		0.00000000		0.00000000		0.00000000		0.00000000	
