# total energy = -14250.0926904 eV	

CRYSTAL	
PRIMVEC	
		7.85999966		0.00000000		0.00000000	
		0.00000000		7.85999966		0.00000000	
		0.00000000		0.00000000		4.77279615	
PRIMCOORD
   24 1	
O		1.10503657		2.82496326		1.21391407		 0.00009678		-0.00009678		 0.00063120	
O		6.75496309		5.03503797		1.21391407		-0.00009678		 0.00009678		 0.00063120	
O		2.82496326		6.75496309		3.55888602		-0.00009678		-0.00009678		-0.00063120	
O		5.03503797		1.10503657		3.55888602		 0.00009678		 0.00009678		-0.00063120	
O		0.65096517		1.46384555		3.76258891		 0.00041121		 0.00029452		-0.00051630	
O		7.20903449		6.39615411		3.76258891		-0.00041121		-0.00029452		-0.00051630	
O		1.46384555		7.20903449		1.01021117		 0.00029452		-0.00041121		 0.00051630	
O		6.39615411		0.65096517		1.01021117		-0.00029452		 0.00041121		 0.00051630	
O		3.27903466		5.39384695		1.01021117		-0.00041121		 0.00029452		 0.00051630	
O		4.58096500		2.46615428		1.01021117		 0.00041121		-0.00029452		 0.00051630	
O		2.46615428		3.27903466		3.76258891		-0.00029452		-0.00041121		-0.00051630	
O		5.39384695		4.58096500		3.76258891		 0.00029452		 0.00041121		-0.00051630	
O		0.00000000		3.92999983		3.91035455		0.00000000		0.00000000		-0.00053225	
O		3.92999983		0.00000000		0.86244475		0.00000000		0.00000000		 0.00053225	
Ca		2.60686321		1.32313662		2.41952326		-0.00024961		 0.00024961		 0.00046015	
Ca		5.25313645		6.53686304		2.41952326		 0.00024961		-0.00024961		 0.00046015	
Ca		1.32313662		5.25313645		2.35327682		 0.00024961		 0.00024961		-0.00046015	
Ca		6.53686304		2.60686321		2.35327682		-0.00024961		-0.00024961		-0.00046015	
Si		1.09969334		2.83030649		4.46438156		-0.00070601		 0.00070601		-0.00030630	
Si		6.76030789		5.02969317		4.46438156		 0.00070601		-0.00070601		-0.00030630	
Si		2.83030649		6.76030789		0.30841774		 0.00070601		 0.00070601		 0.00030630	
Si		5.02969317		1.09969334		0.30841774		-0.00070601		-0.00070601		 0.00030630	
Mg		0.00000000		0.00000000		0.00000000		0.00000000		0.00000000		0.00000000	
Mg		3.92999983		3.92999983		0.00000000		0.00000000		0.00000000		0.00000000	
