# total energy = -20636.6473076 eV

CRYSTAL
PRIMVEC
		10.05000003		0.00000000		0.00000000
		0.00000000		5.74999697		0.00000000
		0.00000000		0.00000000		4.86999886
PRIMECORD
   28 1
Si		3.34665001		0.00000000		4.37666949		 0.00017760		-0.00000000		-0.00001862
Si		6.70335002		0.00000000		0.49333139		-0.00017760		-0.00000000		 0.00001862
Si		8.37165002		2.87500049		4.37666949		 0.00021860		0.00000000		-0.00002750
Si		1.67835000		2.87500049		0.49333139		-0.00021860		0.00000000		 0.00002750
Mg		0.00000000		0.00000000		0.00000000		0.00000000		0.00000000		0.00000000
Mg		5.02500001		2.87500049		0.00000000		0.00000000		0.00000000		0.00000000
Mg		5.02500001		0.00000000		2.43500044		0.00000000		0.00000000		0.00000000
Mg		0.00000000		2.87500049		2.43500044		0.00000000		0.00000000		0.00000000
Mg		2.51250001		1.43749974		2.43500044		-0.00000984		 0.00000070		-0.00000142
Mg		7.53750002		4.31250024		2.43500044		 0.00000984		-0.00000070		 0.00000142
Mg		7.53750002		1.43749974		2.43500044		 0.00000984		 0.00000070		 0.00000142
Mg		2.51250001		4.31250024		2.43500044		-0.00000984		-0.00000070		-0.00000142
O		8.23497002		0.00000000		1.08113981		 0.00020871		0.00000000		-0.00019728
O		1.81503001		0.00000000		3.78886006		-0.00020871		0.00000000		 0.00019728
O		3.20997001		2.87500049		1.08113981		 0.00017805		0.00000000		-0.00018506
O		6.84003002		2.87500049		3.78886006		-0.00017805		0.00000000		 0.00018506
O		3.35770501		0.00000000		1.14591105		-0.00001633		-0.00000000		 0.00012680
O		6.69229502		0.00000000		3.72408882		 0.00001633		-0.00000000		-0.00012680
O		8.38270502		2.87500049		1.14591105		 0.00000387		0.00000000		 0.00011124
O		1.66729500		2.87500049		3.72408882		-0.00000387		0.00000000		-0.00011124
O		0.91254000		1.55422547		1.09721076		-0.00036363		-0.00017120		 0.00014695
O		9.13746003		4.19577451		3.77278911		 0.00036363		 0.00017120		-0.00014695
O		9.13746003		1.55422547		3.77278911		 0.00036363		-0.00017120		-0.00014695
O		0.91254000		4.19577451		1.09721076		-0.00036363		 0.00017120		 0.00014695
O		5.93754002		4.42922496		1.09721076		-0.00034037		-0.00016590		 0.00012975
O		4.11246001		1.32077502		3.77278911		 0.00034037		 0.00016590		-0.00012975
O		4.11246001		4.42922496		3.77278911		 0.00034037		-0.00016590		-0.00012975
O		5.93754002		1.32077502		1.09721076		-0.00034037		 0.00016590		 0.00012975
