# total energy = -24714.250958 eV

CRYSTAL
PRIMVEC
		9.03899718		0.00000000		-0.72311796
		0.00000000		8.69499814		0.00000000
		-0.40712054		0.00000000		5.08900215
PRIMECORD
   40 1
O		1.06974033		0.75124833		0.21224457		 0.00031343		-0.00047035		 0.00020041
O		0.86618006		7.94375072		2.75674475		 0.00031343		 0.00047035		 0.00020041
O		5.43363775		5.09874740		1.79570107		-0.00014335		 0.00045621		-0.00006454
O		5.23007749		3.59625164		4.34020124		-0.00014335		-0.00045621		-0.00006454
O		3.36380656		2.13897014		0.26485459		 0.00003717		 0.00027230		-0.00008649
O		3.16024720		6.55602981		2.80935476		 0.00003717		-0.00027230		-0.00008649
O		7.76573013		6.48647012		1.37299829		 0.00020322		-0.00032063		-0.00016519
O		7.56216986		2.20852984		3.91749756		 0.00020322		 0.00032063		-0.00016519
O		3.12178851		8.35502434		1.14583162		 0.00035682		-0.00014975		-0.00012848
O		2.91822915		0.33997380		3.69033179		 0.00035682		 0.00014975		-0.00012848
O		7.66245878		4.00752527		0.51964384		 0.00007259		-0.00002927		 0.00009636
O		7.45889851		4.68747378		3.06414401		 0.00007259		 0.00002927		 0.00009636
O		7.58358638		7.90114529		3.81819613		-0.00054574		-0.00048609		 0.00006469
O		7.78714664		0.79385376		1.27369505		-0.00054574		 0.00048609		 0.00006469
O		3.16594817		3.55364622		2.90648806		 0.00021567		-0.00040327		 0.00014719
O		3.36950753		5.14135283		0.36198698		 0.00021567		 0.00040327		 0.00014719
O		5.22652741		6.61080796		4.42947813		-0.00035609		-0.00003149		-0.00013647
O		5.43008768		2.08419199		1.88497796		-0.00035609		 0.00003149		-0.00013647
O		0.87695996		2.26330798		2.66688932		-0.00014376		 0.00046195		-0.00008601
O		1.08052023		6.43169107		0.12238915		-0.00014376		-0.00046195		-0.00008601
O		5.61392622		8.27503114		2.39361067		-0.00032928		 0.00023240		 0.00023893
O		5.81748558		0.41996881		-0.15088859		-0.00032928		-0.00023240		 0.00023893
O		0.94151237		3.92753117		4.66659952		 0.00031426		-0.00008170		 0.00007941
O		1.14507173		4.76746879		2.12210026		 0.00031426		 0.00008170		 0.00007941
Si		2.65402382		0.77124572		0.13353811		 0.00027560		 0.00019829		 0.00009823
Si		2.45046355		7.92375242		2.67803828		 0.00027560		-0.00019829		 0.00009823
Si		7.02565795		5.11874570		1.62030291		-0.00008846		 0.00006795		 0.00017852
Si		6.82209769		3.57625244		4.16480308		-0.00008846		-0.00006795		 0.00017852
Si		5.99353572		7.91592684		3.87915948		-0.00038574		-0.00002151		 0.00003038
Si		6.19709598		0.77907221		1.33466021		-0.00038574		 0.00002151		 0.00003038
Si		1.56523097		3.56842777		3.10078368		 0.00016806		 0.00027371		-0.00006629
Si		1.76879124		5.12657219		0.55628441		 0.00016806		-0.00027371		-0.00006629
Mg		8.72490400		0.83558867		2.92241216		-0.00008172		-0.00049811		-0.00020727
Mg		8.92846337		7.85940947		0.37791199		-0.00008172		 0.00049811		-0.00020727
Mg		4.17772028		5.18308865		3.63002405		 0.00016960		 0.00092264		-0.00002856
Mg		4.38127964		3.51190949		1.08552388		 0.00016960		-0.00092264		-0.00002856
Mg		-0.03333805		2.28417589		1.09030537		-0.00000504		-0.00040417		-0.00032359
Mg		-0.23689832		6.41082406		3.63480464		-0.00000504		 0.00040417		-0.00032359
Mg		4.45774452		6.63167587		1.08395786		-0.00004721		 0.00035288		 0.00015877
Mg		4.25418516		2.06332409		3.62845803		-0.00004721		-0.00035288		 0.00015877
