# total energy = -24713.272008 eV

CRYSTAL
PRIMVEC
		9.03900142		0.00000000		-1.08467799
		0.00000000		8.69500341		0.00000000
		-0.61067703		0.00000000		5.08899648
PRIMECORD
   40 1
O		1.05774971		0.75124773		0.16849584		-0.00040614		 0.00001939		 0.00005914
O		0.75241029		7.94375114		2.71299590		-0.00040614		-0.00001939		 0.00005914
O		5.34384779		5.09874761		1.57117215		-0.00016025		-0.00012859		 0.00017793
O		5.03850836		3.59625216		4.11567221		-0.00016025		 0.00012859		 0.00017793
O		3.34231124		2.13897006		0.12858275		-0.00005852		-0.00030889		-0.00032945
O		3.03697091		6.55602972		2.67308281		-0.00005852		 0.00030889		-0.00032945
O		7.68544583		6.48646994		1.05594624		 0.00000751		-0.00009410		-0.00009604
O		7.38010641		2.20852983		3.60044630		 0.00000751		 0.00009410		-0.00009604
O		3.06560615		8.35502476		1.01646558		 0.00009385		-0.00029616		 0.00027190
O		2.76026581		0.33997410		3.56096564		 0.00009385		 0.00029616		 0.00027190
O		7.61686199		4.00752487		0.20949775		 0.00046319		-0.00003282		 0.00000544
O		7.31152166		4.68747399		2.75399781		 0.00046319		 0.00003282		 0.00000544
O		7.40545061		7.90114604		3.50060076		 0.00003681		-0.00072315		-0.00017696
O		7.71079094		0.79385374		0.95610070		 0.00003681		 0.00072315		-0.00017696
O		3.03874433		3.55364615		2.76967282		 0.00045221		 0.00054544		 0.00045501
O		3.34408376		5.14135271		0.22517276		 0.00045221		-0.00054544		 0.00045501
O		5.03137459		6.61080757		4.20480435		-0.00044449		 0.00072951		 0.00004430
O		5.33671492		2.08419220		1.66030429		-0.00044449		-0.00072951		 0.00004430
O		0.76677343		2.26330768		2.62299617		-0.00000064		-0.00039877		 0.00037734
O		1.07211285		6.43169118		0.07849611		-0.00000064		 0.00039877		 0.00037734
O		5.49948535		8.27503106		2.15989889		-0.00048416		-0.00009002		-0.00020127
O		5.80482478		0.41996871		-0.38460117		-0.00048416		 0.00009002		-0.00020127
O		0.75061410		3.92753118		4.61366727		-0.00004144		 0.00017043		-0.00014833
O		1.05595443		4.76746859		2.06916721		-0.00004144		-0.00017043		-0.00014833
Si		2.64010139		0.77124615		0.02626278		-0.00010926		 0.00051013		 0.00000079
Si		2.33476106		7.92375271		2.57076284		-0.00010926		-0.00051013		 0.00000079
Si		6.93780141		5.11874604		1.33224803		-0.00027090		-0.00037037		-0.00041106
Si		6.63246107		3.57625283		3.87674809		-0.00027090		 0.00037037		-0.00041106
Si		5.81806814		7.91592704		3.62538083		 0.00017219		 0.00080846		 0.00011865
Si		6.12340757		0.77907182		1.08088077		 0.00017219		-0.00080846		 0.00011865
Si		1.43536004		3.56842807		3.02778512		 0.00083053		 0.00055188		 0.00016790
Si		1.74070037		5.12657170		0.48328506		 0.00083053		-0.00055188		 0.00016790
Mg		8.57915513		0.83558942		2.56175641		 0.00054071		 0.00018747		 0.00031865
Mg		8.88449455		7.85941036		0.01725634		 0.00054071		-0.00018747		 0.00031865
Mg		4.01812903		5.18308930		3.45014814		-0.00031785		 0.00055420		-0.00009758
Mg		4.32346937		3.51190956		0.90564808		-0.00031785		-0.00055420		-0.00009758
Mg		-0.07712325		2.28417643		1.08813563		 0.00015673		-0.00025116		-0.00048653
Mg		-0.38246267		6.41082425		3.63263569		 0.00015673		 0.00025116		-0.00048653
Mg		4.39975142		6.63167632		0.90100785		-0.00046008		 0.00004651		-0.00004985
Mg		4.09441109		2.06332436		3.44550791		-0.00046008		-0.00004651		-0.00004985
