# total energy = -24714.250958 eV

CRYSTAL
PRIMVEC
		9.03899718		0.00000000		0.72311796
		0.00000000		8.69499814		0.00000000
		0.40712054		0.00000000		5.08900215
PRIMECORD
   40 1
O		1.11769762		0.75124833		0.38724012		-0.00014343		 0.00045627		 0.00006461
O		1.32125789		7.94375072		2.93174029		-0.00014343		-0.00045627		 0.00006461
O		5.79279919		5.09874740		2.69381458		 0.00031334		-0.00047028		-0.00020051
O		5.99635855		3.59625164		5.23831565		 0.00031334		 0.00047028		-0.00020051
O		3.44979090		2.13897014		0.80994199		 0.00020325		-0.00032064		 0.00016509
O		3.65335117		6.55602981		3.35444216		 0.00020325		 0.00032064		 0.00016509
O		8.08686541		6.48647012		2.64120547		 0.00003711		 0.00027238		 0.00008640
O		8.29042568		2.20852984		5.18570564		 0.00003711		-0.00027238		 0.00008640
O		3.34651865		8.35502434		1.66329554		 0.00007255		-0.00002935		-0.00009633
O		3.55007892		0.33997380		4.20779662		 0.00007255		 0.00002935		-0.00009633
O		7.84484918		4.00752527		1.76022753		 0.00035687		-0.00014973		 0.00012855
O		8.04840854		4.68747378		4.30472770		 0.00035687		 0.00014973		 0.00012855
O		8.29612756		7.90114529		5.08857324		 0.00021587		-0.00040331		-0.00014715
O		8.09256729		0.79385376		2.54407307		 0.00021587		 0.00040331		-0.00014715
O		3.67476678		3.55364622		3.45374450		-0.00054570		-0.00048605		-0.00006459
O		3.47120651		5.14135283		0.90924523		-0.00054570		 0.00048605		-0.00006459
O		6.00713935		6.61080796		5.32817107		-0.00014365		 0.00046203		 0.00008614
O		5.80357999		2.08419199		2.78367090		-0.00014365		-0.00046203		 0.00008614
O		1.31770872		2.26330798		2.84246249		-0.00035612		-0.00003149		 0.00013639
O		1.11414936		6.43169107		0.29796232		-0.00035612		 0.00003149		 0.00013639
O		6.07169176		8.27503114		3.32846087		 0.00031426		-0.00008159		-0.00007941
O		5.86813149		0.41996881		0.78396070		 0.00031426		 0.00008159		-0.00007941
O		1.70510571		3.92753117		4.87832904		-0.00032924		 0.00023239		-0.00023892
O		1.50154635		4.76746879		2.33382887		-0.00032924		-0.00023239		-0.00023892
Si		2.70971782		0.77124572		0.56263737		-0.00008845		 0.00006782		-0.00017854
Si		2.91327809		7.92375242		3.10713754		-0.00008845		-0.00006782		-0.00017854
Si		7.37708358		5.11874570		2.77252195		 0.00027561		 0.00019824		-0.00009823
Si		7.58064385		3.57625244		5.31702212		 0.00027561		-0.00019824		-0.00009823
Si		6.69541036		7.91592684		4.89427581		 0.00016794		 0.00027357		 0.00006623
Si		6.49185100		0.77907221		2.34977564		 0.00016794		-0.00027357		 0.00006623
Si		2.08471703		3.56842777		3.39278024		-0.00038575		-0.00002159		-0.00003037
Si		1.88115676		5.12657219		0.84828007		-0.00038575		 0.00002159		-0.00003037
Mg		9.30789967		0.83558867		4.36503544		 0.00016955		 0.00092256		 0.00002846
Mg		9.10433940		7.85940947		1.82053618		 0.00016955		-0.00092256		 0.00002846
Mg		4.81608350		5.18308865		4.34952756		-0.00008166		-0.00049822		 0.00020726
Mg		4.61252414		3.51190949		1.80502829		-0.00008166		 0.00049822		 0.00020726
Mg		0.14180620		2.28417589		1.09898333		-0.00004725		 0.00035281		-0.00015871
Mg		0.34536556		6.41082406		3.64348260		-0.00004725		-0.00035281		-0.00015871
Mg		4.68972171		6.63167587		1.81575468		-0.00000511		-0.00040413		 0.00032362
Mg		4.89328197		2.06332409		4.36025486		-0.00000511		 0.00040413		 0.00032362
