# total energy = -24715.3726497 eV

CRYSTAL
PRIMVEC
		9.03900020		0.00000000		-0.36155965
		0.00000000		8.69499929		0.00000000
		-0.20355823		0.00000000		5.08900087
PRIMECORD
   40 1
O		1.08172896		0.75124763		0.25599288		 0.00017982		-0.00000008		-0.00055242
O		0.97994895		7.94375075		2.80049331		 0.00017982		 0.00000008		-0.00055242
O		5.52342789		5.09874818		2.02022900		-0.00029244		-0.00012307		 0.00007711
O		5.42164787		3.59625201		4.56472853		-0.00029244		 0.00012307		 0.00007711
O		3.38530302		2.13896979		0.40112604		 0.00008202		-0.00012668		-0.00036675
O		3.28352300		6.55602950		2.94562738		 0.00008202		 0.00012668		-0.00036675
O		7.84601349		6.48646943		1.69004981		 0.00011683		-0.00009486		-0.00015989
O		7.74423347		2.20852986		4.23455025		 0.00011683		 0.00009486		-0.00015989
O		3.17797161		8.35502485		1.27519793		-0.00013660		-0.00001277		-0.00011141
O		3.07619159		0.33997444		3.81969837		-0.00013660		 0.00001277		-0.00011141
O		7.70805580		4.00752520		0.82978970		-0.00074926		 0.00004406		 0.00051008
O		7.60627578		4.68747409		3.37429014		-0.00074926		-0.00004406		 0.00051008
O		7.76172164		7.90114573		4.13578986		 0.00003049		 0.00037610		 0.00003312
O		7.86350166		0.79385356		1.59129033		 0.00003049		-0.00037610		 0.00003312
O		3.29315271		3.55364608		3.04330222		-0.00019867		 0.00035673		 0.00023489
O		3.39493273		5.14135320		0.49880178		-0.00019867		-0.00035673		 0.00023489
O		5.42168134		6.61080803		4.65415049		 0.00049023		-0.00003812		 0.00004035
O		5.52346045		2.08419216		2.10965096		 0.00049023		 0.00003812		 0.00004035
O		0.98714793		2.26330839		2.71078187		 0.00021544		-0.00024391		 0.00048416
O		1.08892795		6.43169090		0.16628234		 0.00021544		 0.00024391		 0.00048416
O		5.72836747		8.27503086		2.62732408		 0.00005721		 0.00014692		 0.00003487
O		5.83014749		0.41996933		0.08282365		 0.00005721		-0.00014692		 0.00003487
O		1.13241136		3.92753122		4.71953211		 0.00003923		-0.00004456		-0.00019977
O		1.23419138		4.76746898		2.17503167		 0.00003923		 0.00004456		-0.00019977
Si		2.66794798		0.77124613		0.24081331		 0.00039990		-0.00035104		-0.00037637
Si		2.56616796		7.92375316		2.78531284		 0.00039990		 0.00035104		-0.00037637
Si		7.11351416		5.11874577		1.90835791		-0.00015979		-0.00010749		 0.00022235
Si		7.01173415		3.57625261		4.45285835		-0.00015979		 0.00010749		 0.00022235
Si		6.16900472		7.91592726		4.13293849		-0.00041597		 0.00007160		 0.00036389
Si		6.27078474		0.77907202		1.58843896		-0.00041597		-0.00007160		 0.00036389
Si		1.69510304		3.56842762		3.17378320		-0.00031113		 0.00017324		 0.00006571
Si		1.79688305		5.12657167		0.62928277		-0.00031113		-0.00017324		 0.00006571
Mg		8.87065261		0.83558924		3.28306797		 0.00045453		-0.00016251		-0.00031113
Mg		8.97243263		7.85941005		0.73856754		 0.00045453		 0.00016251		-0.00031113
Mg		4.33731088		5.18308888		3.80989949		-0.00004341		 0.00022099		-0.00022773
Mg		4.43909089		3.51190950		1.26539996		-0.00004341		-0.00022099		-0.00022773
Mg		0.01044839		2.28417622		1.09247498		 0.00032759		 0.00018800		 0.00009530
Mg		-0.09133162		6.41082397		3.63697451		 0.00032759		-0.00018800		 0.00009530
Mg		4.51573868		6.63167587		1.26690706		-0.00008605		 0.00028452		 0.00014368
Mg		4.41395866		2.06332432		3.81140659		-0.00008605		-0.00028452		 0.00014368
