# total energy = -49421.6296112 eV

CRYSTAL
PRIMVEC
		18.23300236		2.18795588		0.00000000
		1.05828788		8.81910850		0.00000000
		0.00000000		0.00000000		5.18019144
PRIMECORD
   80 1
Mg		7.55330592		6.59190365		4.48760594		 0.00027841		 0.00033932		 0.00086430
Mg		11.73798616		4.41515705		0.69259285		-0.00027841		-0.00033932		-0.00086430
Mg		2.62148498		3.32117727		1.89750655		-0.00027841		-0.00033932		 0.00086430
Mg		16.66980526		7.68588343		3.28269224		 0.00027841		 0.00033932		-0.00086430
Mg		11.53500548		2.72365386		3.28269224		 0.00031540		 0.00053839		-0.00036084
Mg		7.75628660		8.28340501		1.89750655		-0.00031540		-0.00053839		 0.00036084
Mg		16.87278594		9.37738478		0.69259285		-0.00031540		-0.00053839		-0.00036084
Mg		2.41850430		1.62967408		4.48760594		 0.00031540		 0.00053839		 0.00036084
Mg		7.38761663		5.12130789		1.85917393		-0.00011089		 0.00015540		-0.00032937
Mg		11.90367545		5.88575097		3.32102669		 0.00011089		-0.00015540		 0.00032937
Mg		2.78717427		4.79177120		4.44927333		 0.00011089		-0.00015540		-0.00032937
Mg		16.50411597		6.21528767		0.73092546		-0.00011089		 0.00015540		 0.00032937
Mg		12.40572910		10.06953322		0.73092546		 0.00027265		 0.00002982		 0.00050600
Mg		6.88556298		0.93752748		4.44927333		-0.00027265		-0.00002982		-0.00050600
Mg		16.00206232		2.03150725		3.32102669		-0.00027265		-0.00002982		 0.00050600
Mg		3.28922792		8.97555345		1.85917393		 0.00027265		 0.00002982		-0.00050600
Si		5.31198298		3.60840008		0.26211765		-0.00014405		 0.00001361		-0.00041885
Si		13.97930726		7.39866062		4.91808114		 0.00014405		-0.00001361		 0.00041885
Si		4.86280792		6.30468085		2.85221704		 0.00014405		-0.00001361		-0.00041885
Si		14.42848233		4.70237985		2.32798175		-0.00014405		 0.00001361		 0.00041885
Si		14.17361104		9.01784713		2.32798175		 0.00004207		-0.00003046		 0.00050012
Si		5.11768104		1.98921357		2.85221704		-0.00004207		 0.00003046		-0.00050012
Si		14.23418039		3.08319334		4.91808114		-0.00004207		 0.00003046		 0.00050012
Si		5.05711169		7.92386736		0.26211765		 0.00004207		-0.00003046		-0.00050012
Si		8.99221493		4.01178132		4.13431750		 0.00005851		-0.00004595		-0.00009967
Si		10.29907531		6.99527755		1.04588129		-0.00005851		 0.00004595		 0.00009967
Si		1.18257597		5.90129777		1.54421810		-0.00005851		 0.00004595		-0.00009967
Si		18.10871611		5.10576109		3.63598252		 0.00005851		-0.00004595		 0.00009967
Si		10.48406313		8.53685494		3.63598252		-0.00015911		 0.00012947		-0.00037621
Si		8.80722711		2.47020393		1.54421810		 0.00015911		-0.00012947		 0.00037621
Si		17.92372646		3.56418370		1.04588129		 0.00015911		-0.00012947		-0.00037621
Si		1.36756562		7.44287516		4.13431750		-0.00015911		 0.00012947		 0.00037621
O		3.70631590		3.40615763		0.17612728		 0.00017564		 0.00009930		-0.00020196
O		15.58497618		7.60090124		5.00407334		-0.00017564		-0.00009930		 0.00020196
O		6.46847499		6.50692146		2.76622667		-0.00017564		-0.00009930		-0.00020196
O		12.82281525		4.50013740		2.41397211		 0.00017564		 0.00009930		 0.00020196
O		15.77694959		9.20068639		2.41397211		-0.00044767		-0.00024967		 0.00014942
O		3.51434249		1.80637248		2.76622667		 0.00044767		 0.00024967		-0.00014942
O		12.63084000		2.90035225		5.00407334		 0.00044767		 0.00024967		 0.00014942
O		6.66045024		8.10670661		0.17612728		-0.00044767		-0.00024967		-0.00014942
O		6.20997134		5.11645617		0.22274932		 0.00027914		 0.00000598		-0.00012018
O		13.08132073		5.89060453		4.95745131		-0.00027914		-0.00000598		 0.00012018
O		3.96482139		4.79662475		2.81284871		-0.00027914		-0.00000598		-0.00012018
O		15.32647069		6.21043595		2.36735008		 0.00027914		 0.00000598		 0.00012018
O		12.55831214		1.53220450		2.36735008		 0.00008136		 0.00080028		 0.00014664
O		6.73297810		9.47485620		2.81284871		-0.00008136		-0.00080028		-0.00014664
O		15.84947928		10.56883597		4.95745131		-0.00008136		-0.00080028		 0.00014664
O		3.44181280		0.43822473		0.22274932		 0.00008136		 0.00080028		-0.00014664
O		5.75084677		2.62322587		4.30992692		-0.00019536		-0.00044200		-0.00024418
O		13.54044531		8.38383300		0.87027370		 0.00019536		 0.00044200		 0.00024418
O		4.42394413		7.28985322		1.71982753		 0.00019536		 0.00044200		-0.00024418
O		14.86734611		3.71720564		3.46037310		-0.00019536		-0.00044200		 0.00024418
O		13.48202637		7.89701947		3.46037310		 0.00041928		 0.00024204		 0.00046469
O		5.80926388		3.11003939		1.71982753		-0.00041928		-0.00024204		-0.00046469
O		14.92576322		4.20401917		0.87027370		-0.00041928		-0.00024204		 0.00046469
O		4.36552702		6.80303970		4.30992692		 0.00041928		 0.00024204		-0.00046469
O		10.61189359		4.24091206		4.13379964		-0.00008876		-0.00023468		 0.00030236
O		8.67939848		6.76614864		1.04640099		 0.00008876		 0.00023468		-0.00030236
O		17.79589783		7.86012842		1.54370024		 0.00008876		 0.00023468		 0.00030236
O		1.49539425		3.14693228		3.63650038		-0.00008876		-0.00023468		-0.00030236
O		8.87285385		8.37827978		3.63650038		 0.00005267		 0.00003512		-0.00077518
O		10.41843823		2.62877908		1.54370024		-0.00005267		-0.00003512		 0.00077518
O		1.30193704		1.53479931		1.04640099		-0.00005267		-0.00003512		-0.00077518
O		17.98935320		9.47225956		4.13379964		 0.00005267		 0.00003512		 0.00077518
O		8.39573825		5.21099122		3.57433705		-0.00034607		 0.00040542		-0.00006050
O		10.89555199		5.79606948		1.60586173		 0.00034607		-0.00040542		 0.00006050
O		1.77905264		4.70208971		0.98423766		 0.00034607		-0.00040542		-0.00006050
O		17.51223760		6.30497099		4.19596113		-0.00034607		 0.00040542		 0.00006050
O		11.38998649		9.91635336		4.19596113		 0.00009245		 0.00002049		 0.00040673
O		7.90130559		1.09070734		0.98423766		-0.00009245		-0.00002049		-0.00040673
O		17.01780493		2.18468712		1.60586173		-0.00009245		-0.00002049		 0.00040673
O		2.27348715		8.82237358		3.57433705		 0.00009245		 0.00002049		-0.00040673
O		8.38032735		2.70146854		3.12366166		-0.00050624		-0.00045504		 0.00041789
O		10.91096473		8.30559032		2.05654080		 0.00050624		 0.00045504		-0.00041789
O		1.79446539		7.21161055		0.53356043		 0.00050624		 0.00045504		 0.00041789
O		17.49682669		3.79544832		4.64664019		-0.00050624		-0.00045504		-0.00041789
O		10.79476406		7.33725388		4.64664019		-0.00034674		 0.00047778		 0.00004019
O		8.49652618		3.66980498		0.53356043		 0.00034674		-0.00047778		-0.00004019
O		17.61302552		4.76378659		2.05654080		 0.00034674		-0.00047778		 0.00004019
O		1.67826472		6.24327411		3.12366166		-0.00034674		 0.00047778		-0.00004019
