# total energy = -49432.3356583 eV

CRYSTAL
PRIMVEC
		18.23300053		-0.72931929		0.00000000
		-0.35276222		8.81909208		0.00000000
		0.00000000		0.00000000		5.18019610
PRIMECORD
   80 1
Mg		6.63033496		5.49412930		4.48760736		-0.00027851		 0.00025632		 0.00037493
Mg		11.24990152		2.59565079		0.69259239		 0.00027851		-0.00025632		-0.00037493
Mg		2.13340126		2.96031043		1.89750749		 0.00027851		-0.00025632		 0.00037493
Mg		15.74683340		5.12946965		3.28269226		-0.00027851		 0.00025632		-0.00037493
Mg		11.31756173		0.90414571		3.28269226		-0.00002699		-0.00013152		 0.00023489
Mg		6.56267476		7.18563437		1.89750749		 0.00002699		 0.00013152		-0.00023489
Mg		15.67917319		6.82097473		0.69259239		 0.00002699		 0.00013152		 0.00023489
Mg		2.20106146		1.26880535		4.48760736		-0.00002699		-0.00013152		-0.00023489
Mg		6.70015020		4.02178496		1.85917480		-0.00049767		-0.00067556		 0.00030986
Mg		11.18008628		4.06799513		3.32102678		 0.00049767		 0.00067556		-0.00030986
Mg		2.06358419		4.43265477		4.44927467		 0.00049767		 0.00067556		 0.00030986
Mg		15.81665046		3.65712531		0.73092690		-0.00049767		-0.00067556		-0.00030986
Mg		11.01273407		8.25177663		0.73092690		-0.00000570		-0.00012931		 0.00042462
Mg		6.86750241		-0.16199654		4.44927467		 0.00000570		 0.00012931		-0.00042462
Mg		15.98400085		-0.52665619		3.32102678		 0.00000570		 0.00012931		 0.00042462
Mg		1.89623381		8.61643627		1.85917480		-0.00000570		-0.00012931		-0.00042462
Si		4.82968563		2.81635710		0.26211737		-0.00040363		-0.00065299		-0.00021794
Si		13.05055085		5.27342116		4.91808238		 0.00040363		 0.00065299		 0.00021794
Si		3.93405059		5.63808263		2.85221724		 0.00040363		 0.00065299		-0.00021794
Si		13.94618407		2.45169745		2.32798251		-0.00040363		-0.00065299		 0.00021794
Si		12.98578472		6.89260926		2.32798251		-0.00021481		-0.00016135		 0.00030842
Si		4.89445176		1.19717083		2.85221724		 0.00021481		 0.00016135		-0.00030842
Si		14.01095203		0.83251118		4.91808238		 0.00021481		 0.00016135		 0.00030842
Si		3.86928445		7.25726890		0.26211737		-0.00021481		-0.00016135		-0.00030842
Si		8.51612567		2.63015879		4.13431778		-0.00022115		-0.00019551		 0.00021946
Si		9.36410898		5.45962130		1.04588196		 0.00022115		 0.00019551		-0.00021946
Si		0.24761054		5.82428277		1.54421791		 0.00022115		 0.00019551		 0.00021946
Si		17.63262594		2.26549732		3.63598184		-0.00022115		-0.00019551		-0.00021946
Si		9.30244676		7.00120061		3.63598184		-0.00017523		-0.00051692		-0.00009454
Si		8.57778972		1.08857948		1.54421791		 0.00017523		 0.00051692		 0.00009454
Si		17.69428999		0.72391983		1.04588196		 0.00017523		 0.00051692		-0.00009454
Si		0.18594649		7.36586025		4.13431778		-0.00017523		-0.00051692		 0.00009454
O		3.22556821		2.87083707		0.17612747		 0.00030566		 0.00006875		-0.00042966
O		14.65466645		5.21894301		5.00407228		-0.00030566		-0.00006875		 0.00042966
O		5.53816618		5.58360266		2.76622734		-0.00030566		-0.00006875		-0.00042966
O		12.34206847		2.50617743		2.41397240		 0.00030566		 0.00006875		 0.00042966
O		14.59067583		6.81872845		2.41397240		-0.00061735		-0.00023688		-0.00016818
O		3.28956065		1.27105163		2.76622734		 0.00061735		 0.00023688		 0.00016818
O		12.40605909		0.90639199		5.00407228		 0.00061735		 0.00023688		-0.00016818
O		5.47417557		7.18338810		0.17612747		-0.00061735		-0.00023688		 0.00016818
O		5.50035172		4.20801429		0.22274821		 0.00004706		 0.00064841		-0.00036041
O		12.37988476		3.88176580		4.95745153		-0.00004706		-0.00064841		 0.00036041
O		3.26338450		4.24642544		2.81284809		-0.00004706		-0.00064841		-0.00036041
O		14.61685016		3.84335464		2.36735166		 0.00004706		 0.00064841		 0.00036041
O		12.55422032		-0.47663410		2.36735166		-0.00013209		-0.00012253		 0.00047715
O		5.32601434		8.56641418		2.81284809		 0.00013209		 0.00012253		-0.00047715
O		14.44251460		8.20175454		4.95745153		 0.00013209		 0.00012253		 0.00047715
O		3.43772005		-0.11197445		0.22274821		-0.00013209		-0.00012253		-0.00047715
O		5.43702714		1.74074982		4.30992702		-0.00094036		 0.00043514		-0.00022208
O		12.44320751		6.34903208		0.87027455		 0.00094036		-0.00043514		 0.00022208
O		3.32670725		6.71369173		1.71982715		 0.00094036		-0.00043514		-0.00022208
O		14.55352741		1.37608835		3.46037442		-0.00094036		 0.00043514		 0.00022208
O		12.46267951		5.86221766		3.46037442		-0.00019436		-0.00041993		 0.00059911
O		5.41755515		2.22756242		1.71982715		 0.00019436		 0.00041993		-0.00059911
O		14.53405541		1.86290278		0.87027455		 0.00019436		 0.00041993		 0.00059911
O		3.34618107		6.22687731		4.30992702		-0.00019436		-0.00041993		-0.00059911
O		10.13015883		2.60081668		4.13379955		-0.00031065		-0.00016352		 0.00062086
O		7.75007765		5.48896341		1.04640020		 0.00031065		 0.00016352		-0.00062086
O		16.86657609		5.12430376		1.54369968		 0.00031065		 0.00016352		 0.00062086
O		1.01365856		2.96547632		3.63650007		-0.00031065		-0.00016352		-0.00062086
O		7.68559070		7.10109516		3.63650007		 0.00020368		-0.00014459		 0.00069229
O		10.19464395		0.98868675		1.54369968		-0.00020368		 0.00014459		-0.00069229
O		1.07814369		1.35334639		1.04640020		-0.00020368		 0.00014459		 0.00069229
O		16.80209097		6.73643551		4.13379955		 0.00020368		-0.00014459		-0.00069229
O		7.71335257		3.94955921		3.57433786		 0.00000450		-0.00033416		-0.00004812
O		10.16688391		4.14022088		1.60586189		-0.00000450		 0.00033416		 0.00004812
O		1.05038364		4.50488052		0.98423799		-0.00000450		 0.00033416		-0.00004812
O		16.82985101		3.58489956		4.19596176		 0.00000450		-0.00033416		 0.00004812
O		10.00207176		8.26050445		4.19596176		 0.00008367		 0.00028714		 0.00009316
O		7.87816472		-0.17072436		0.98423799		-0.00008367		-0.00028714		-0.00009316
O		16.99466316		-0.53538583		1.60586189		-0.00008367		-0.00028714		 0.00009316
O		0.88557150		8.62516409		3.57433786		 0.00008367		 0.00028714		-0.00009316
O		8.10502959		1.39365165		3.12366095		-0.00001670		-0.00042930		-0.00022078
O		9.77520507		6.69612843		2.05654062		 0.00001670		 0.00042930		 0.00022078
O		0.65870663		7.06078808		0.53356107		 0.00001670		 0.00042930		-0.00022078
O		17.22152985		1.02899200		4.64664050		-0.00001670		-0.00042930		 0.00022078
O		9.81393921		5.72779139		4.64664050		-0.00031308		-0.00011630		-0.00041296
O		8.06629545		2.36198870		0.53356107		 0.00031308		 0.00011630		 0.00041296
O		17.18279571		1.99732905		2.05654062		 0.00031308		 0.00011630		-0.00041296
O		0.69744077		6.09245103		3.12366095		-0.00031308		-0.00011630		 0.00041296
