# total energy = -49428.2698011 eV

CRYSTAL
PRIMVEC
		18.23299464		1.45863591		0.00000000
		0.70553018		8.81910900		0.00000000
		0.00000000		0.00000000		5.18019239
PRIMECORD
   80 1
Mg		7.32256446		6.31746015		4.48760693		 0.00009903		-0.00069280		-0.00026714
Mg		11.61596402		3.96028110		0.69259278		-0.00009903		 0.00069280		 0.00026714
Mg		2.49946487		3.23096132		1.89750707		-0.00009903		 0.00069280		-0.00026714
Mg		16.43906361		7.04677994		3.28269264		 0.00009903		-0.00069280		 0.00026714
Mg		11.48064351		2.26877743		3.28269264		 0.00020400		-0.00028863		 0.00000231
Mg		7.45788315		8.00896200		1.89750707		-0.00020400		 0.00028863		-0.00000231
Mg		16.57438230		8.73828361		0.69259278		-0.00020400		 0.00028863		 0.00000231
Mg		2.36414436		1.53945764		4.48760693		 0.00020400		-0.00028863		-0.00000231
Mg		7.21575087		4.84642643		1.85917410		 0.00006047		-0.00043048		-0.00010280
Mg		11.72277762		5.43131300		3.32102561		-0.00006047		 0.00043048		 0.00010280
Mg		2.60627664		4.70199321		4.44927395		-0.00006047		 0.00043048		-0.00010280
Mg		16.33225002		5.57574621		0.73092576		 0.00006047		-0.00043048		 0.00010280
Mg		12.05748010		9.61509491		0.73092576		 0.00008183		 0.00025209		-0.00022951
Mg		6.88104839		0.66264634		4.44927395		-0.00008183		-0.00025209		 0.00022951
Mg		15.99754754		1.39196613		3.32102561		-0.00008183		-0.00025209		-0.00022951
Mg		2.94097912		8.88577512		1.85917410		 0.00008183		 0.00025209		 0.00022951
Si		5.19140859		3.41038935		0.26211730		-0.00002804		 0.00003573		-0.00002430
Si		13.74711807		6.86735007		4.91808241		 0.00002804		-0.00003573		 0.00002430
Si		4.63061891		6.13803028		2.85221716		 0.00002804		-0.00003573		-0.00002430
Si		14.30790957		4.13970914		2.32798255		-0.00002804		 0.00003573		 0.00002430
Si		13.87665306		8.48653745		2.32798255		-0.00003784		 0.00011732		 0.00000418
Si		5.06187360		1.79120197		2.85221716		 0.00003784		-0.00011732		-0.00000418
Si		14.17837458		2.52052176		4.91808241		 0.00003784		-0.00011732		 0.00000418
Si		4.76015391		7.75721766		0.26211730		-0.00003784		 0.00011732		-0.00000418
Si		8.87319440		3.66637543		4.13431871		 0.00043913		-0.00008800		 0.00015582
Si		10.06533225		6.61136399		1.04588283		-0.00043913		 0.00008800		-0.00015582
Si		0.94883310		5.88204421		1.54421885		-0.00043913		 0.00008800		 0.00015582
Si		17.98969355		4.39569522		3.63598269		 0.00043913		-0.00008800		-0.00015582
Si		10.18865919		8.15294159		3.63598269		 0.00041701		 0.00024452		-0.00009294
Si		8.74986746		2.12479783		1.54421885		-0.00041701		-0.00024452		 0.00009294
Si		17.86636844		2.85411762		1.04588283		-0.00041701		-0.00024452		-0.00009294
Si		1.07216004		7.42362180		4.13431871		 0.00041701		 0.00024452		 0.00009294
O		3.58612805		3.27232881		0.17612647		-0.00030697		 0.00013760		 0.00083930
O		15.35239861		7.00541244		5.00407324		 0.00030697		-0.00013760		-0.00083930
O		6.23589946		6.27609265		2.76622632		 0.00030697		-0.00013760		 0.00083930
O		12.70262903		4.00164860		2.41397339		-0.00030697		 0.00013760		-0.00083930
O		15.48038250		8.60519829		2.41397339		-0.00011066		 0.00021067		-0.00009068
O		3.45814599		1.67254296		2.76622632		 0.00011066		-0.00021067		 0.00009068
O		12.57464514		2.40186275		5.00407324		 0.00011066		-0.00021067		-0.00009068
O		6.36388152		7.87587850		0.17612647		-0.00011066		 0.00021067		 0.00009068
O		6.03256658		4.88934502		0.22274904		-0.00032701		 0.00000785		 0.00013166
O		12.90596190		5.38839440		4.95745250		 0.00032701		-0.00000785		-0.00013166
O		3.78946275		4.65907462		2.81284890		 0.00032701		-0.00000785		 0.00013166
O		15.14906573		5.61866663		2.36735081		-0.00032701		 0.00000785		-0.00013166
O		12.55729040		1.02999505		2.36735081		-0.00041337		 0.00003877		-0.00004439
O		6.38123809		9.24774437		2.81284890		 0.00041337		-0.00003877		 0.00004439
O		15.49773724		9.97706416		4.95745250		 0.00041337		-0.00003877		-0.00004439
O		3.44078942		0.30067526		0.22274904		-0.00041337		 0.00003877		 0.00004439
O		5.67239170		2.40260537		4.30992753		 0.00027676		-0.00011869		-0.00014679
O		13.26613495		7.87513405		0.87027400		-0.00027676		 0.00011869		 0.00014679
O		4.14963580		7.14581426		1.71982768		-0.00027676		 0.00011869		-0.00014679
O		14.78889268		3.13192516		3.46037386		 0.00027676		-0.00011869		 0.00014679
O		13.22719105		7.38831969		3.46037386		 0.00012545		 0.00019511		 0.00025842
O		5.71133744		2.88942157		1.71982768		-0.00012545		-0.00019511		-0.00025842
O		14.82783659		3.61874135		0.87027400		-0.00012545		-0.00019511		 0.00025842
O		4.11069007		6.65899990		4.30992753		 0.00012545		 0.00019511		-0.00025842
O		10.49145990		3.83088878		4.13379924		 0.00021775		 0.00053123		-0.00023434
O		8.44706858		6.44685247		1.04640047		-0.00021775		-0.00053123		 0.00023434
O		17.56356773		7.17617225		1.54369938		-0.00021775		-0.00053123		-0.00023434
O		1.37496075		3.10156717		3.63650033		 0.00021775		 0.00053123		 0.00023434
O		8.57603837		8.05898308		3.63650033		-0.00003137		-0.00022278		-0.00058842
O		10.36248828		2.21875634		1.54369938		 0.00003137		 0.00022278		 0.00058842
O		1.24598913		1.48943655		1.04640047		 0.00003137		 0.00022278		-0.00058842
O		17.69253752		8.78830470		4.13379924		-0.00003137		-0.00022278		 0.00058842
O		8.22514265		4.89563355		3.57433751		 0.00006444		 0.00044578		 0.00024233
O		10.71338584		5.38210770		1.60586220		-0.00006444		-0.00044578		-0.00024233
O		1.59688669		4.65278608		0.98423765		-0.00006444		-0.00044578		 0.00024233
O		17.34164180		5.62495334		4.19596206		 0.00006444		 0.00044578		-0.00024233
O		11.04300701		9.50239153		4.19596206		-0.00017454		-0.00013392		-0.00033151
O		7.89551965		0.77534972		0.98423765		 0.00017454		 0.00013392		 0.00033151
O		17.01201880		1.50466951		1.60586220		 0.00017454		 0.00013392		-0.00033151
O		1.92650786		8.77307174		3.57433751		-0.00017454		-0.00013392		 0.00033151
O		8.31150114		2.37451550		3.12366117		 0.00000936		 0.00040682		 0.00023759
O		10.62702552		7.90322575		2.05654037		-0.00000936		-0.00040682		-0.00023759
O		1.51052637		7.17390414		0.53356132		-0.00000936		-0.00040682		 0.00023759
O		17.42800212		3.10383528		4.64664022		 0.00000936		 0.00040682		-0.00023759
O		10.54955841		6.93488869		4.64664022		 0.00044433		 0.00020391		 0.00046889
O		8.38896825		3.34285256		0.53356132		-0.00044433		-0.00020391		-0.00046889
O		17.50546923		4.07217235		2.05654037		-0.00044433		-0.00020391		 0.00046889
O		1.43305926		6.20556707		3.12366117		 0.00044433		 0.00020391		-0.00046889
