# total energy = -49421.6296112 eV

CRYSTAL
PRIMVEC
		18.23300236		-2.18795588		0.00000000
		-1.05828788		8.81910850		0.00000000
		0.00000000		0.00000000		5.18019144
PRIMECORD
   80 1
Mg		6.16884927		4.94524305		4.48760594		-0.00031539		 0.00053839		 0.00036083
Mg		11.00585787		1.68589672		0.69259285		 0.00031539		-0.00053839		-0.00036083
Mg		1.88935853		2.77987649		1.89750655		 0.00031539		-0.00053839		 0.00036083
Mg		15.28534678		3.85126327		3.28269224		-0.00031539		 0.00053839		-0.00036083
Mg		11.20884038		-0.00560647		3.28269224		-0.00027834		 0.00033909		-0.00086431
Mg		5.96586859		6.63674807		1.89750655		 0.00027834		-0.00033909		 0.00086431
Mg		15.08236794		5.54276830		0.69259285		 0.00027834		-0.00033909		-0.00086431
Mg		2.09233920		1.08837330		4.48760594		-0.00027834		 0.00033909		 0.00086431
Mg		6.35641720		3.47202310		1.85917393		-0.00027271		 0.00002978		-0.00050598
Mg		10.81828994		3.15911667		3.32102669		 0.00027271		-0.00002978		 0.00050598
Mg		1.70179059		4.25309644		4.44927333		 0.00027271		-0.00002978		-0.00050598
Mg		15.47291655		2.37804332		0.73092546		-0.00027271		 0.00002978		 0.00050598
Mg		10.31623629		7.34289708		0.73092546		 0.00011089		 0.00015541		 0.00032937
Mg		6.85847085		-0.71175732		4.44927333		-0.00011089		-0.00015541		-0.00032937
Mg		15.97497020		-1.80573709		3.32102669		-0.00011089		-0.00015541		 0.00032937
Mg		1.19973694		8.43687686		1.85917393		 0.00011089		 0.00015541		-0.00032937
Si		4.58853526		2.42033701		0.26211765		-0.00004212		-0.00003040		-0.00050011
Si		12.58617188		4.21080276		4.91808114		 0.00004212		 0.00003040		 0.00050011
Si		3.46967253		5.30478253		2.85221704		 0.00004212		 0.00003040		-0.00050011
Si		13.70503461		1.32635723		2.32798175		-0.00004212		-0.00003040		 0.00050011
Si		12.39186994		5.82998927		2.32798175		 0.00014401		 0.00001369		 0.00041884
Si		4.78283721		0.80115050		2.85221704		-0.00014401		-0.00001369		-0.00041884
Si		13.89933655		-0.29282928		4.91808114		-0.00014401		-0.00001369		 0.00041884
Si		3.27537059		6.92396904		0.26211765		 0.00014401		 0.00001369		-0.00041884
Si		8.27808134		1.93934665		4.13431750		 0.00015923		 0.00012940		 0.00037624
Si		8.89662580		4.69179312		1.04588129		-0.00015923		-0.00012940		-0.00037624
Si		-0.21987354		5.78577289		1.54421810		-0.00015923		-0.00012940		 0.00037624
Si		17.39458068		0.84536687		3.63598252		 0.00015923		 0.00012940		-0.00037624
Si		8.71163615		6.23337234		3.63598252		-0.00005860		-0.00004587		 0.00009964
Si		8.46306916		0.39776742		1.54421810		 0.00005860		 0.00004587		-0.00009964
Si		17.57957034		-0.69621235		1.04588129		 0.00005860		 0.00004587		 0.00009964
Si		-0.40486320		7.32735212		4.13431750		-0.00005860		-0.00004587		-0.00009964
O		2.98519488		2.60317626		0.17612728		 0.00044770		-0.00024972		-0.00014950
O		14.18951226		4.02796351		5.00407334		-0.00044770		 0.00024972		 0.00014950
O		5.07301291		5.12194328		2.76622667		-0.00044770		 0.00024972		-0.00014950
O		12.10169423		1.50919649		2.41397211		 0.00044770		-0.00024972		 0.00014950
O		13.99753701		5.62774866		2.41397211		-0.00017569		 0.00009932		 0.00020202
O		3.17717013		1.00339111		2.76622667		 0.00017569		-0.00009932		-0.00020202
O		12.29366947		-0.09058866		5.00407334		 0.00017569		-0.00009932		 0.00020202
O		4.88103767		6.72172843		0.17612728		-0.00017569		 0.00009932		-0.00020202
O		5.14554077		3.75379553		0.22274932		-0.00008137		 0.00080020		-0.00014663
O		12.02916637		2.87734607		4.95745131		 0.00008137		-0.00080020		 0.00014663
O		2.91266702		3.97132585		2.81284871		 0.00008137		-0.00080020		-0.00014663
O		14.26204012		2.65981575		2.36735008		-0.00008137		 0.00080020		 0.00014663
O		12.55217496		-1.48105395		2.36735008		-0.00027910		 0.00000586		 0.00012017
O		4.62253218		8.11219372		2.81284871		 0.00027910		-0.00000586		-0.00012017
O		13.73903336		7.01821394		4.95745131		 0.00027910		-0.00000586		 0.00012017
O		3.43567561		-0.38707418		0.22274932		-0.00027910		 0.00000586		-0.00012017
O		5.28011810		1.29950935		4.30992692		-0.00041927		 0.00024203		-0.00046471
O		11.89458904		5.33163042		0.87027370		 0.00041927		-0.00024203		 0.00046471
O		2.77808969		6.42561019		1.71982753		 0.00041927		-0.00024203		-0.00046471
O		14.39661745		0.20552957		3.46037310		-0.00041927		 0.00024203		 0.00046471
O		11.95300615		4.84481506		3.46037310		 0.00019538		-0.00044203		 0.00024413
O		5.22170099		1.78632471		1.71982753		-0.00019538		 0.00044203		-0.00024413
O		14.33820034		0.69234310		0.87027370		-0.00019538		 0.00044203		 0.00024413
O		2.83650680		5.93879667		4.30992692		 0.00019538		-0.00044203		-0.00024413
O		9.88929245		1.78076966		4.13379964		-0.00005287		 0.00003522		 0.00077523
O		7.28541653		4.85037011		1.04640099		 0.00005287		-0.00003522		-0.00077523
O		16.40191587		3.75639033		1.54370024		 0.00005287		-0.00003522		 0.00077523
O		0.77279127		2.87474943		3.63650038		-0.00005287		 0.00003522		-0.00077523
O		7.09195932		6.46250125		3.63650038		 0.00008883		-0.00023469		-0.00030235
O		10.08274782		0.16863852		1.54370024		-0.00008883		 0.00023469		 0.00030235
O		0.96624847		1.26261829		1.04640099		-0.00008883		 0.00023469		-0.00030235
O		16.20845867		5.36852147		4.13379964		 0.00008883		-0.00023469		 0.00030235
O		7.37215797		3.31884323		3.57433705		-0.00009246		 0.00002052		-0.00040676
O		9.80254917		3.31229653		1.60586173		 0.00009246		-0.00002052		 0.00040676
O		0.68604982		4.40627631		0.98423766		 0.00009246		-0.00002052		-0.00040676
O		16.48865916		2.22486346		4.19596113		-0.00009246		 0.00002052		 0.00040676
O		9.30811466		7.43258041		4.19596113		 0.00034610		 0.00040547		 0.00006047
O		7.86659248		-0.80144064		0.98423766		-0.00034610		-0.00040547		-0.00006047
O		16.98309183		-1.89542042		1.60586173		-0.00034610		-0.00040547		 0.00006047
O		0.19161532		8.52656018		3.57433705		 0.00034610		 0.00040547		-0.00006047
O		7.96738040		0.73974376		3.12366166		 0.00034673		 0.00047784		-0.00004013
O		9.20732674		5.89139601		2.05654080		-0.00034673		-0.00047784		 0.00004013
O		0.09082739		6.98537578		0.53356043		-0.00034673		-0.00047784		-0.00004013
O		17.08387975		-0.35423602		4.64664019		 0.00034673		 0.00047784		 0.00004013
O		9.32352741		4.92305957		4.64664019		 0.00050624		-0.00045512		-0.00041785
O		7.85118157		1.70808020		0.53356043		-0.00050624		 0.00045512		 0.00041785
O		16.96768092		0.61410042		2.05654080		-0.00050624		 0.00045512		-0.00041785
O		0.20702622		6.01703934		3.12366166		 0.00050624		-0.00045512		 0.00041785
