# total energy = -13384.2968932 eV	

CRYSTAL	
PRIMVEC	
		3.05299981		0.12211987		0.00000000	
		-1.42074039		2.58291714		0.00000000	
		0.00000000		0.00000000		20.12499895	
PRIMCOORD
   18 1	
O		0.00000000		0.00000000		6.26491250		 0.00012357		-0.00041545		 0.00019016	
O		0.00000000		0.00000000		13.86008553		-0.00012357		 0.00041545		-0.00019016	
O		1.56175297		0.94238481		8.61752424		 0.00007365		-0.00009053		-0.00000109	
O		0.07050614		1.76264975		11.50747379		-0.00007365		 0.00009053		 0.00000109	
O		1.56175297		0.94238481		1.44497493		-0.00028941		-0.00005188		-0.00061663	
O		0.07050614		1.76264975		18.68002310		 0.00028941		 0.00005188		 0.00061663	
O		0.07050614		1.76264975		3.79758759		 0.00005660		 0.00035490		-0.00061393	
O		1.56175297		0.94238481		16.32741044		-0.00005660		-0.00035490		 0.00061393	
H		1.56175297		0.94238481		9.60767415		 0.00025741		 0.00009538		-0.00006477	
H		0.07050614		1.76264975		10.51732388		-0.00025741		-0.00009538		 0.00006477	
H		1.56175297		0.94238481		0.45482502		-0.00016387		-0.00000682		 0.00001954	
H		0.07050614		1.76264975		19.67017301		 0.00016387		 0.00000682		-0.00001954	
Mg		0.07050614		1.76264975		7.50461220		-0.00012170		 0.00013103		-0.00091810	
Mg		1.56175297		0.94238481		12.62038583		 0.00012170		-0.00013103		 0.00091810	
Mg		0.00000000		0.00000000		2.55788788		 0.00010085		-0.00022868		 0.00046763	
Mg		0.00000000		0.00000000		17.56711106		-0.00010085		 0.00022868		-0.00046763	
Mg		1.56175297		0.94238481		5.03326144		 0.00020372		-0.00002064		-0.00019471	
Mg		0.07050614		1.76264975		15.09173537		-0.00020372		 0.00002064		 0.00019471	
