# total energy = -7175.1515221 eV

CRYSTAL
PRIMVEC
		3.11200130		0.00000000		0.49792159
		-1.55599907		2.69507221		-0.24895922
		2.04288068		0.00000000		12.76800109
PRIMECORD
   12 1
O		0.84452691		1.79671407		5.27829131		 0.00046337		-0.00014881		-0.00004978
O		2.75435316		0.89835719		7.73866931		-0.00046337		 0.00014881		 0.00004978
O		1.66658115		1.79671407		10.41613458		-0.00054180		-0.00015815		-0.00052521
O		1.93229797		0.89835719		2.60082510		 0.00054180		 0.00015815		 0.00052521
O		0.00000000		0.00000000		0.00000000		0.00000000		0.00000000		0.00000000
H		0.68620309		1.79671407		4.28877114		 0.00016436		 0.00010398		-0.00012160
H		2.91267603		0.89835719		8.72818854		-0.00016436		-0.00010398		 0.00012160
H		1.50805406		1.79671407		9.42533739		 0.00001144		-0.00010170		-0.00008174
H		2.09082601		0.89835719		3.59162229		-0.00001144		 0.00010170		 0.00008174
Mg		1.02144002		0.00000000		6.38400023		0.00000000		0.00000000		0.00000000
Mg		3.40133323		0.89835719		11.78229464		 0.00062349		-0.00016873		 0.00015855
Mg		0.19754715		1.79671407		1.23466598		-0.00062349		 0.00016873		-0.00015855
