# total energy = -14249.3134019 eV

CRYSTAL
PRIMVEC
		8.15030875		0.00000000		0.00000000
		0.00000000		8.15030089		0.00000000
		0.00000000		0.00000000		5.30381773
PRIMECORD
   24 1
O		1.23165330		2.84349871		1.21866622		-0.00027219		 0.00027222		 0.00014788
O		6.91865309		5.30680453		1.21866622		 0.00027220		-0.00027221		 0.00014780
O		2.84349871		6.91865152		4.08515308		 0.00027215		 0.00027226		-0.00014737
O		5.30680846		1.23165173		4.08515308		-0.00027215		-0.00027223		-0.00014723
O		0.65324614		1.54003096		4.15977356		 0.00021083		 0.00024161		-0.00018970
O		7.49706103		6.61027229		4.15977356		-0.00021080		-0.00024164		-0.00018971
O		1.54003174		7.49705946		1.14404653		 0.00024162		-0.00021082		 0.00018988
O		6.61027465		0.65324379		1.14404653		-0.00024158		 0.00021084		 0.00018983
O		3.42190666		5.61518218		1.14404496		-0.00021085		 0.00024155		 0.00018988
O		4.72839973		2.53512106		1.14404496		 0.00021085		-0.00024154		 0.00018986
O		2.53512185		3.42190744		4.15977356		-0.00024167		-0.00021085		-0.00018976
O		5.61518533		4.72839659		4.15977356		 0.00024160		 0.00021079		-0.00018973
O		0.00000000		4.07515123		4.36962926		 0.00000001		 0.00000001		-0.00052800
O		4.07515359		0.00000000		0.93418926		-0.00000004		-0.00000001		 0.00052818
Ca		2.55739866		1.51774864		2.54934845		-0.00003145		 0.00003138		-0.00031348
Ca		5.59290773		6.63255460		2.54934923		 0.00003143		-0.00003139		-0.00031347
Ca		1.51775336		5.59290223		2.75447007		 0.00003146		 0.00003140		 0.00031359
Ca		6.63255382		2.55740180		2.75447007		-0.00003144		-0.00003138		 0.00031358
Si		1.13970231		2.93545049		4.90766982		 0.00000725		-0.00000727		 0.00027434
Si		7.01060408		5.21485354		4.90766982		-0.00000728		 0.00000724		 0.00027441
Si		2.93545049		7.01060251		0.39614948		-0.00000719		-0.00000721		-0.00027532
Si		5.21485590		1.13970152		0.39614948		 0.00000717		 0.00000715		-0.00027537
Mg		0.00000000		0.00000000		0.00000000		 0.00000002		 0.00000004		-0.00000003
Mg		4.07515280		4.07515201		0.00000000		 0.00000005		 0.00000003		-0.00000008
