# total energy = -14249.9857932 eV

CRYSTAL
PRIMVEC
		7.68638799		0.00000000		0.00000000
		0.00000000		7.68638799		0.00000000
		0.00000000		0.00000000		4.87975503
PRIMECORD
   24 1
O		1.09206521		2.75112878		1.25966320		 0.00002201		-0.00002196		 0.00008050
O		6.59432356		4.93525920		1.25966320		-0.00002199		 0.00002202		 0.00008040
O		2.75112957		6.59432435		3.62009340		-0.00002202		-0.00002199		-0.00008195
O		4.93525999		1.09206521		3.62009340		 0.00002195		 0.00002196		-0.00008214
O		0.62762805		1.39645313		3.77017224		 0.00043495		 0.00025470		-0.00059045
O		7.05876073		6.28993486		3.77017224		-0.00043473		-0.00025441		-0.00059050
O		1.39645313		7.05876073		1.10958358		 0.00025544		-0.00043510		 0.00059017
O		6.28993564		0.62762805		1.10958436		-0.00025556		 0.00043506		 0.00059008
O		3.21556595		5.23964712		1.10958358		-0.00043515		 0.00025565		 0.00059009
O		4.47082283		2.44674165		1.10958436		 0.00043516		-0.00025573		 0.00059006
O		2.44674087		3.21556595		3.77017145		-0.00025480		-0.00043492		-0.00059032
O		5.23964791		4.47082283		3.77017224		 0.00025477		 0.00043494		-0.00059044
O		0.00000000		3.84319478		3.95815199		 0.00000018		-0.00000009		 0.00031437
O		3.84319478		0.00000000		0.92160461		-0.00000009		 0.00000001		-0.00031446
Ca		2.57530138		1.26789261		2.46824032		-0.00073180		 0.00073183		 0.00018928
Ca		5.11108739		6.41849616		2.46824032		 0.00073179		-0.00073188		 0.00018929
Ca		1.26789261		5.11108739		2.41151549		 0.00073182		 0.00073182		-0.00018962
Ca		6.41849616		2.57530138		2.41151549		-0.00073186		-0.00073182		-0.00018962
Si		1.09738486		2.74580914		4.53866720		-0.00015935		 0.00015942		-0.00018807
Si		6.58900392		4.94057964		4.53866720		 0.00015914		-0.00015957		-0.00018755
Si		2.74580914		6.58900392		0.34108783		 0.00015890		 0.00015860		 0.00019034
Si		4.94057964		1.09738486		0.34108783		-0.00015873		-0.00015848		 0.00019057
Mg		0.00000000		0.00000000		0.00000000		-0.00000005		-0.00000003		-0.00000009
Mg		3.84319478		3.84319399		0.00000000		 0.00000001		-0.00000003		 0.00000006
