# total energy = -14250.2337662 eV

CRYSTAL
PRIMVEC
		7.74059054		0.00000000		0.00000000
		0.00000000		7.74059054		0.00000000
		0.00000000		0.00000000		4.91761665
PRIMECORD
   24 1
O		1.09894271		2.77135256		1.26078560		 0.00000982		-0.00000981		 0.00011211
O		6.64164941		4.96923798		1.26078560		-0.00000981		 0.00000982		 0.00011199
O		2.77135335		6.64164862		3.65683104		-0.00000976		-0.00000977		-0.00011223
O		4.96923877		1.09894271		3.65683104		 0.00000976		 0.00000974		-0.00011229
O		0.63368968		1.41217155		3.81037142		 0.00038594		 0.00025045		-0.00054733
O		7.10690244		6.32841899		3.81037142		-0.00038590		-0.00025032		-0.00054731
O		1.41217234		7.10690165		1.10724523		 0.00025044		-0.00038592		 0.00054729
O		6.32841899		0.63368889		1.10724523		-0.00025049		 0.00038595		 0.00054726
O		3.23660638		5.28246761		1.10724523		-0.00038596		 0.00025045		 0.00054727
O		4.50398495		2.45812372		1.10724523		 0.00038599		-0.00025050		 0.00054726
O		2.45812372		3.23660638		3.81037142		-0.00025040		-0.00038592		-0.00054731
O		5.28246761		4.50398495		3.81037142		 0.00025043		 0.00038594		-0.00054731
O		0.00000000		3.87029527		3.98857648		 0.00000003		-0.00000001		 0.00022618
O		3.87029606		0.00000000		0.92904096		-0.00000003		-0.00000001		-0.00022619
Ca		2.58651760		1.28377767		2.48550245		-0.00084733		 0.00084735		 0.00034790
Ca		5.15407452		6.45681366		2.48550324		 0.00084732		-0.00084737		 0.00034789
Ca		1.28377767		5.15407295		2.43211419		 0.00084739		 0.00084738		-0.00034798
Ca		6.45681366		2.58651838		2.43211419		-0.00084741		-0.00084740		-0.00034799
Si		1.10101775		2.76927831		4.57423606		-0.00012491		 0.00012489		-0.00019181
Si		6.63957437		4.97131223		4.57423606		 0.00012484		-0.00012491		-0.00019166
Si		2.76927831		6.63957358		0.34338059		 0.00012477		 0.00012469		 0.00019214
Si		4.97131302		1.10101696		0.34338059		-0.00012472		-0.00012468		 0.00019219
Mg		0.00000000		0.00000000		0.00000000		0.00000000		-0.00000003		-0.00000003
Mg		3.87029606		3.87029527		0.00000000		-0.00000000		-0.00000002		-0.00000004
