# total energy = -14250.3892941 eV

CRYSTAL
PRIMVEC
		7.93747568		0.00000000		0.00000000
		0.00000000		7.93747568		0.00000000
		0.00000000		0.00000000		5.07623144
PRIMECORD
   24 1
O		1.14040028		2.82833835		1.25679980		 0.00003222		-0.00003219		-0.00014787
O		6.79707776		5.10913969		1.25679980		-0.00003221		 0.00003217		-0.00014814
O		2.82833835		6.79707776		3.81943086		-0.00003239		-0.00003235		 0.00014783
O		5.10913969		1.14040028		3.81943086		 0.00003238		 0.00003236		 0.00014786
O		0.65040161		1.47156486		3.96679720		 0.00007065		-0.00013579		 0.00008775
O		7.28707564		6.46591318		3.96679642		-0.00007060		 0.00013588		 0.00008773
O		1.47156486		7.28707642		1.10943424		-0.00013597		-0.00007078		-0.00008785
O		6.46591239		0.65040161		1.10943424		 0.00013600		 0.00007077		-0.00008782
O		3.31833701		5.44030427		1.10943345		-0.00007079		-0.00013598		-0.00008780
O		4.61914102		2.49717377		1.10943345		 0.00007079		 0.00013596		-0.00008779
O		2.49717455		3.31833701		3.96679720		 0.00013572		-0.00007066		 0.00008781
O		5.44030427		4.61914102		3.96679642		-0.00013578		 0.00007064		 0.00008776
O		0.00000000		3.96873941		4.12846796		 0.00000002		-0.00000004		 0.00044619
O		3.96873862		0.00000000		0.94776269		-0.00000001		-0.00000001		-0.00044631
Ca		2.60129047		1.36744816		2.53504167		-0.00010135		 0.00010134		 0.00012201
Ca		5.33618757		6.57002988		2.53504167		 0.00010136		-0.00010135		 0.00012202
Ca		1.36744894		5.33618757		2.54118819		 0.00010141		 0.00010142		-0.00012217
Ca		6.57002909		2.60129047		2.54118898		-0.00010142		-0.00010141		-0.00012215
Si		1.11621427		2.85252514		4.71878459		-0.00014119		 0.00014129		-0.00004230
Si		6.82126376		5.08495289		4.71878459		 0.00014120		-0.00014130		-0.00004195
Si		2.85252514		6.82126376		0.35744527		 0.00014124		 0.00014117		 0.00004259
Si		5.08495289		1.11621427		0.35744606		-0.00014125		-0.00014114		 0.00004250
Mg		0.00000000		0.00000000		0.00000000		-0.00000001		-0.00000002		 0.00000005
Mg		3.96873941		3.96873862		0.00000000		-0.00000002		-0.00000001		 0.00000003
