# total energy = -24716.3182981 eV	

CRYSTAL	
PRIMVEC	
		9.61326956		0.00000000		0.00000000	
		0.00000000		8.82246278		0.00000000	
		-1.62743040		0.00000000		5.15756718	
PRIMCOORD
   40 1	
Mg		2.03778627		5.76459613		1.12795952		 0.00010798		-0.00036968		 0.00007611	
Mg		5.94805577		3.05786473		4.02960766		-0.00010798		 0.00036968		-0.00007611	
Mg		6.76177001		1.35336474		1.45082407		-0.00010798		-0.00036968		-0.00007611	
Mg		1.22407203		7.46909419		3.70674408		 0.00010798		 0.00036968		 0.00007611	
Mg		2.11556628		0.10675247		1.11300320		-0.00066708		-0.00014148		 0.00053955	
Mg		5.87027576		8.71570838		4.04456495		 0.00066708		 0.00014148		-0.00053955	
Mg		6.68399000		4.51798194		1.46578135		 0.00066708		-0.00014148		-0.00053955	
Mg		1.30185204		4.30447795		3.69178679		-0.00066708		 0.00014148		 0.00053955	
Si		-0.04067759		2.99610716		1.53643985		 0.00040730		-0.00028567		 0.00011568	
Si		8.02651963		5.82635273		3.62112926		-0.00040730		 0.00028567		-0.00011568	
Si		8.84023387		7.40733663		1.04234471		-0.00040730		-0.00028567		-0.00011568	
Si		-0.85439087		1.41512327		4.11522344		 0.00040730		 0.00028567		 0.00011568	
Si		4.94609063		7.39057493		1.16664236		-0.00082029		 0.00020836		 0.00084060	
Si		3.03975044		1.43188496		3.99092578		 0.00082029		-0.00020836		-0.00084060	
Si		3.85346468		2.97934450		1.41214219		 0.00082029		 0.00020836		-0.00084060	
Si		4.13237736		5.84311443		3.74542595		-0.00082029		-0.00020836		 0.00084060	
O		8.04909831		3.00757675		0.96910697		 0.00032363		 0.00028011		 0.00046839	
O		-0.06325724		5.81488314		4.18846117		-0.00032363		-0.00028011		-0.00046839	
O		0.75045700		7.41880622		1.60967662		-0.00032363		 0.00028011		-0.00046839	
O		7.23538503		1.40365271		3.54789057		 0.00032363		-0.00028011		 0.00046839	
O		0.68054066		4.41652253		1.65454751		 0.00002262		-0.00029206		-0.00017022	
O		7.30530042		4.40593640		3.50301967		-0.00002262		 0.00029206		 0.00017022	
O		8.11901466		0.00529307		0.92423608		-0.00002262		-0.00029206		 0.00017022	
O		-0.13317262		8.81716683		4.23333207		 0.00002262		 0.00029206		-0.00017022	
O		0.00731378		2.47911129		3.15746300		-0.00017453		-0.00013475		 0.00006758	
O		7.97852730		6.34334860		2.00010514		 0.00017453		 0.00013475		-0.00006758	
O		7.16481402		6.89034172		4.57888873		 0.00017453		-0.00013475		-0.00006758	
O		0.82102802		1.93211914		0.57867941		-0.00017453		 0.00013475		 0.00006758	
O		3.39361874		7.39233896		0.66068445		-0.00019411		 0.00081374		-0.00058739	
O		4.59222234		1.43012093		4.49688370		 0.00019411		-0.00081374		 0.00058739	
O		5.40593658		2.98110854		1.91810011		 0.00019411		 0.00081374		 0.00058739	
O		2.57990450		5.84135040		3.23946900		-0.00019411		-0.00081374		-0.00058739	
O		5.47592118		8.61424993		2.05580731		-0.00004036		 0.00008311		 0.00011607	
O		2.50992086		0.20820996		3.10176180		 0.00004036		-0.00008311		-0.00011607	
O		3.32363510		4.20301951		0.52297725		 0.00004036		 0.00008311		-0.00011607	
O		4.66220790		4.61943943		4.63459090		-0.00004036		-0.00008311		 0.00011607	
O		5.07876145		6.13160961		2.31213745		-0.00007076		-0.00044655		-0.00053614	
O		2.90707963		2.69085028		2.84542973		 0.00007076		 0.00044655		 0.00053614	
O		3.72079387		1.72038015		0.26664614		 0.00007076		-0.00044655		 0.00053614	
O		4.26504817		7.10208071		4.89092200		-0.00007076		 0.00044655		-0.00053614	
