# total energy = -24715.7161999 eV	

CRYSTAL	
PRIMVEC	
		9.61326956		0.00000000		0.00000000	
		0.00000000		8.82246278		0.00000000	
		-1.62743040		0.00000000		4.66636756	
PRIMCOORD
   40 1	
Mg		2.03778627		5.76459613		1.02053508		-0.00036143		-0.00020787		-0.00026103	
Mg		5.94805577		3.05786473		3.64583536		 0.00036143		 0.00020787		 0.00026103	
Mg		6.76177001		1.35336474		1.31264966		 0.00036143		-0.00020787		 0.00026103	
Mg		1.22407203		7.46909419		3.35372079		-0.00036143		 0.00020787		-0.00026103	
Mg		2.11556628		0.10675247		1.00700248		-0.00026011		 0.00007254		 0.00008250	
Mg		5.87027576		8.71570838		3.65936796		 0.00026011		-0.00007254		-0.00008250	
Mg		6.68399000		4.51798194		1.32618322		 0.00026011		 0.00007254		-0.00008250	
Mg		1.30185204		4.30447795		3.34018915		-0.00026011		-0.00007254		 0.00008250	
Si		-0.04067759		2.99610716		1.39011146		 0.00036653		-0.00012967		 0.00057390	
Si		8.02651963		5.82635273		3.27625898		-0.00036653		 0.00012967		-0.00057390	
Si		8.84023387		7.40733663		0.94307424		-0.00036653		-0.00012967		-0.00057390	
Si		-0.85439087		1.41512327		3.72329813		 0.00036653		 0.00012967		 0.00057390	
Si		4.94609063		7.39057493		1.05553315		-0.00051469		-0.00013157		 0.00008950	
Si		3.03975044		1.43188496		3.61083826		 0.00051469		 0.00013157		-0.00008950	
Si		3.85346468		2.97934450		1.27765255		 0.00051469		-0.00013157		-0.00008950	
Si		4.13237736		5.84311443		3.38871886		-0.00051469		 0.00013157		 0.00008950	
O		8.04909831		3.00757675		0.87681094		 0.00008890		-0.00047924		-0.00027992	
O		-0.06325724		5.81488314		3.78955951		-0.00008890		 0.00047924		 0.00027992	
O		0.75045700		7.41880622		1.45637381		-0.00008890		-0.00047924		 0.00027992	
O		7.23538503		1.40365271		3.20999664		 0.00008890		 0.00047924		-0.00027992	
O		0.68054066		4.41652253		1.49697161		-0.00025983		-0.00054292		 0.00029023	
O		7.30530042		4.40593640		3.16939884		 0.00025983		 0.00054292		-0.00029023	
O		8.11901466		0.00529307		0.83621410		 0.00025983		-0.00054292		-0.00029023	
O		-0.13317262		8.81716683		3.83015827		-0.00025983		 0.00054292		 0.00029023	
O		0.00731378		2.47911129		2.85675320		-0.00024121		-0.00012943		 0.00010816	
O		7.97852730		6.34334860		1.80961917		 0.00024121		 0.00012943		-0.00010816	
O		7.16481402		6.89034172		4.14280391		 0.00024121		-0.00012943		-0.00010816	
O		0.82102802		1.93211914		0.52356654		-0.00024121		 0.00012943		 0.00010816	
O		3.39361874		7.39233896		0.59776175		-0.00037068		-0.00019571		-0.00045657	
O		4.59222234		1.43012093		4.06860869		 0.00037068		 0.00019571		 0.00045657	
O		5.40593658		2.98110854		1.73542395		 0.00037068		-0.00019571		 0.00045657	
O		2.57990450		5.84135040		2.93094746		-0.00037068		 0.00019571		-0.00045657	
O		5.47592118		8.61424993		1.86001577		-0.00040155		 0.00076272		-0.00072299	
O		2.50992086		0.20820996		2.80635564		 0.00040155		-0.00076272		 0.00072299	
O		3.32363510		4.20301951		0.47316993		 0.00040155		 0.00076272		 0.00072299	
O		4.66220790		4.61943943		4.19320051		-0.00040155		-0.00076272		-0.00072299	
O		5.07876145		6.13160961		2.09193398		-0.00004333		 0.00013284		 0.00029379	
O		2.90707963		2.69085028		2.57443647		 0.00004333		-0.00013284		-0.00029379	
O		3.72079387		1.72038015		0.24125077		 0.00004333		 0.00013284		-0.00029379	
O		4.26504817		7.10208071		4.42511968		-0.00004333		-0.00013284		 0.00029379	
