# total energy = -49438.6084169 eV

CRYSTAL
PRIMVEC
		14.02400194		0.00000000		1.68287684
		0.00000000		5.10899912		0.00000000
		1.04796143		0.00000000		8.73299308
PRIMECORD
   70 1
Mg		2.43310841		1.67524108		0.33759093		-0.00002787		 0.00035466		-0.00072888
Mg		11.60199972		3.43375945		1.43785862		 0.00062504		-0.00069054		 0.00013823
Mg		9.96908869		0.87925848		5.54553154		-0.00002787		-0.00035466		-0.00072888
Mg		5.11397946		4.22974064		4.96291815		 0.00062504		 0.00069054		 0.00013823
Mg		2.67286239		4.27010172		1.82873323		 0.00019221		-0.00000727		-0.00008785
Mg		11.71834273		0.83889740		2.91418986		 0.00062529		 0.00018797		-0.00014314
Mg		10.20884267		3.39339838		7.03667243		 0.00019221		 0.00000727		-0.00008785
Mg		5.23032247		1.71560216		6.43924939		 0.00062529		-0.00018797		-0.00014314
Mg		4.88352512		1.76822481		3.37649122		 0.00000729		 0.00015292		 0.00020531
Mg		9.81997234		3.34077431		3.96886471		-0.00005410		 0.00010042		-0.00005992
Mg		12.41950539		0.78627475		8.58443183		 0.00000729		-0.00015292		 0.00020531
Mg		3.33195349		4.32272437		7.49392566		-0.00005410		-0.00010042		-0.00005992
Mg		0.86834016		2.55449956		7.23616421		-0.00012733		-0.00009670		 0.00000783
Mg		7.35636041		0.00000000		3.71110326		-0.00012733		 0.00009670		 0.00000783
Mg		0.19596910		2.55449956		1.63307064		 0.00002851		 0.00066570		-0.00060813
Mg		7.73194937		0.00000000		6.84101125		 0.00002851		-0.00066570		-0.00060813
Mg		0.69427409		0.00000000		5.78561321		 0.00049660		 0.00021064		 0.00032438
Mg		7.18229435		2.55449956		2.26055227		 0.00049660		-0.00021064		 0.00032438
Mg		0.36207029		0.00000000		3.01725150		-0.00000439		 0.00031514		-0.00004129
Mg		7.89804915		2.55449956		8.22519069		-0.00000439		-0.00031514		-0.00004129
Si		0.00806939		0.00000000		0.06724445		 0.00021752		 0.00009404		 0.00048665
Si		7.54404825		2.55449956		5.27518365		 0.00021752		-0.00009404		 0.00048665
Si		5.28678278		0.07203693		0.67831046		 0.00011827		 0.00007350		 0.00011380
Si		8.74790584		5.03696219		1.09364607		-0.00027324		-0.00021167		 0.00031202
Si		12.82276305		2.48246263		5.88625107		 0.00011827		-0.00007350		 0.00011380
Si		2.25988559		2.62653649		4.61870560		-0.00027324		 0.00021167		 0.00031202
O		6.86541999		3.62125943		9.37600896		-0.00015953		-0.00011926		-0.00002806
O		9.24108643		1.48774110		9.66108882		 0.00022331		 0.00013301		 0.00017715
O		13.35344025		4.04224066		5.85094943		-0.00015953		 0.00011926		-0.00002806
O		1.70510616		1.06675846		4.45314821		 0.00022331		-0.00013301		 0.00017715
O		1.10331861		3.54104859		0.17543474		-0.00039054		 0.00000134		-0.00011684
O		12.93116097		1.56795194		1.59477599		 0.00054732		-0.00036736		-0.00036653
O		8.63929888		4.12245150		5.38337394		-0.00039054		-0.00000134		-0.00011684
O		6.44314072		0.98654762		5.11983552		 0.00054732		 0.00036736		-0.00036653
O		3.86063911		0.11239801		3.43363657		-0.00056001		-0.00079198		 0.00025384
O		10.88666300		4.99660252		4.27676006		 0.00040311		-0.00044238		-0.00052380
O		11.39661939		2.44210155		8.64157718		-0.00056001		 0.00079198		 0.00025384
O		4.39864274		2.66689757		7.80181818		 0.00040311		 0.00044238		-0.00052380
O		3.74869451		2.61580744		1.84421663		 0.00007741		-0.00032455		-0.00046201
O		10.61484333		2.49319168		2.66815466		-0.00003503		-0.00001847		-0.00007148
O		11.28467478		5.04769124		7.05215724		 0.00007741		 0.00032455		-0.00046201
O		4.12682448		0.06130788		6.19321419		-0.00003503		 0.00001847		-0.00007148
O		1.22626629		0.73569593		1.46492137		-0.00021011		-0.00047504		-0.00010235
O		13.11861858		4.37330319		2.89200292		-0.00083272		-0.00020328		-0.00006366
O		8.76224515		1.81880363		6.67286057		-0.00021011		 0.00047504		-0.00010235
O		6.63059832		3.29019549		6.41706245		-0.00083272		 0.00020328		-0.00006366
O		6.40677125		3.30552352		3.88377382		-0.00022225		 0.00037234		 0.00068607
O		8.37574069		1.80347701		4.12005032		 0.00012398		-0.00034874		 0.00037821
O		13.94275294		4.35797657		9.09171443		-0.00022225		-0.00037234		 0.00068607
O		1.88772043		0.75102255		7.64510985		 0.00012398		 0.00034874		 0.00037821
O		5.98051731		0.78167719		2.09395954		 0.00025383		 0.00051186		-0.00006288
O		8.37862070		4.32732334		2.38173296		-0.00045003		-0.00016165		 0.00024306
O		13.51649618		1.77282237		7.30190015		 0.00025383		-0.00051186		-0.00006288
O		1.89060044		3.33617675		5.90679249		-0.00045003		 0.00016165		 0.00024306
O		1.61131874		3.49966489		3.18781889		-0.00019167		 0.00071857		 0.00028495
O		13.14185215		1.60933564		4.57148279		-0.00033102		-0.00005210		-0.00011137
O		9.14729901		4.16383520		8.39575950		-0.00019167		-0.00071857		 0.00028495
O		6.65383190		0.94516533		8.09654232		-0.00033102		 0.00005210		-0.00011137
O		3.65077140		0.02452315		0.49834313		 0.00019463		-0.00037731		 0.00008922
O		10.38790037		5.08447738		1.30679917		-0.00033742		-0.00017865		 0.00035550
O		11.18675026		2.52997641		5.70628233		 0.00019463		 0.00037731		 0.00008922
O		3.89988152		2.57902271		4.83185870		-0.00033742		 0.00017865		 0.00035550
H		4.31199531		3.06539947		1.37816377		-0.00092887		-0.00085488		 0.00038321
H		9.92159609		2.04359965		2.05131592		 0.00050126		-0.00012052		-0.00011059
H		11.84797559		4.59809921		6.58610438		-0.00092887		 0.00085488		 0.00038321
H		3.43357583		0.51089991		5.57637545		 0.00050126		 0.00012052		-0.00011059
H		4.25806190		0.91961956		4.38422716		 0.00085305		-0.00038640		-0.00048863
H		10.70910110		4.18937956		5.15835193		-0.00035251		 0.00011341		-0.00026202
H		11.79404217		1.63488000		9.59216636		 0.00085305		 0.00038640		-0.00048863
H		4.22108225		3.47412053		8.68341146		-0.00035251		-0.00011341		-0.00026202
