# total energy = -49434.9930196 eV

CRYSTAL
PRIMVEC
		14.02400496		0.00000000		-2.24384704
		0.00000000		5.10900528		0.00000000
		-1.39728622		0.00000000		8.73299628
PRIMECORD
   70 1
Mg		2.42014961		1.67524085		-0.34212379		 0.00013662		-0.00004890		 0.00052892
Mg		11.58903943		3.43375874		-1.80914650		-0.00002768		 0.00033611		-0.00032158
Mg		8.73350898		0.87925894		2.90245651		 0.00013662		 0.00004890		 0.00052892
Mg		3.87839952		4.22974065		3.67927231		-0.00002768		-0.00033611		-0.00032158
Mg		2.24445632		4.27010237		1.13174020		-0.00008474		-0.00009344		-0.00041887
Mg		11.28993746		0.83889864		-0.31553695		-0.00011370		-0.00052079		-0.00010176
Mg		8.55781711		3.39339844		4.37632050		-0.00008474		 0.00009344		-0.00041887
Mg		3.57929755		1.71560258		5.17288329		-0.00011370		 0.00052079		-0.00010176
Mg		4.09077754		1.76822521		2.10423346		 0.00002004		-0.00001903		-0.00065988
Mg		9.02722541		3.34077439		1.31440260		-0.00010895		 0.00033577		-0.00036177
Mg		10.40413833		0.78627459		5.34881518		 0.00002004		 0.00001903		-0.00065988
Mg		1.31658550		4.32272501		6.80282283		-0.00010895		-0.00033577		-0.00036177
Mg		-1.15778593		2.55449980		7.23616421		 0.00030327		 0.00003367		-0.00040731
Mg		6.55285398		0.00000000		1.74774397		 0.00030327		-0.00003367		-0.00040731
Mg		-0.26129099		2.55449980		1.63307117		-0.00009023		-0.00030404		 0.00033308
Mg		6.05206838		0.00000000		4.87765147		-0.00009023		 0.00030404		 0.00033308
Mg		-0.92569786		0.00000000		5.78561341		 0.00010687		 0.00023035		 0.00007600
Mg		6.78494205		2.55449980		0.29719317		 0.00010687		-0.00023035		 0.00007600
Mg		-0.48275995		0.00000000		3.01725144		-0.00010916		 0.00004256		 0.00009776
Mg		5.83059942		2.55449980		6.26183032		-0.00010916		-0.00004256		 0.00009776
Si		-0.01075830		0.00000000		0.06724397		-0.00003361		-0.00002506		 0.00022360
Si		6.30260107		2.55449980		3.31182427		-0.00003361		 0.00002506		 0.00022360
Si		5.27431237		0.07203727		-0.80049258		 0.00012138		-0.00010839		-0.00004563
Si		8.73543482		5.03696232		-1.35427150		-0.00009481		 0.00027150		-0.00000436
Si		11.58767316		2.48246252		2.44408771		 0.00012138		 0.00010839		-0.00004563
Si		1.02479634		2.62653707		4.13414732		-0.00009481		-0.00027150		-0.00000436
O		4.43582986		3.62125846		7.74524115		-0.00005536		-0.00010719		 0.00063304
O		6.81149480		1.48774113		7.36513453		-0.00028801		-0.00000595		-0.00001945
O		12.14646977		4.04224093		2.25682233		-0.00005536		 0.00010719		 0.00063304
O		0.49813544		1.06675867		4.12055565		-0.00028801		 0.00000595		-0.00001945
O		1.09109301		3.54104772		-0.13202810		 0.00010206		 0.00038068		-0.00016730
O		12.91893539		1.56795187		-2.02448146		-0.00033576		-0.00027377		 0.00019017
O		7.40445238		4.12245167		3.11255220		 0.00010206		-0.00038068		-0.00016730
O		5.20829548		0.98654793		3.46393736		-0.00033576		 0.00027377		 0.00019017
O		3.01678702		0.11239758		2.45392002		 0.00006854		-0.00013041		-0.00017930
O		10.04281009		4.99660202		1.32975536		 0.00010823		 0.00009133		 0.00052916
O		9.33014639		2.44210222		5.69850031		 0.00006854		 0.00013041		-0.00017930
O		2.33217160		2.66689737		6.81817560		 0.00010823		-0.00009133		 0.00052916
O		3.35256520		2.61580860		0.84211832		 0.00004859		 0.00066368		-0.00018036
O		10.21871641		2.49319242		-0.25646644		 0.00008252		 0.00053710		 0.00028107
O		9.66592599		5.04769221		4.08669862		 0.00004859		-0.00066368		-0.00018036
O		2.50807650		0.06130738		5.23195380		 0.00008252		-0.00053710		 0.00028107
O		0.85189949		0.73569568		1.16649057		 0.00013667		 0.00027573		 0.00032377
O		12.74425331		4.37330392		-0.73628650		-0.00008299		 0.00062570		-0.00014755
O		7.16526028		1.81880412		4.41106944		 0.00013667		-0.00027573		 0.00032377
O		5.03361198		3.29019548		4.75213374		-0.00008299		-0.00062570		-0.00014755
O		5.52183984		3.30552268		2.19607026		-0.00013277		 0.00002084		-0.00024166
O		7.49080848		1.80347692		1.88103465		 0.00007943		 0.00046041		 0.00013951
O		11.83519921		4.35797671		5.44065056		-0.00013277		-0.00002084		-0.00024166
O		-0.21983142		0.75102288		7.36945489		 0.00007943		-0.00046041		 0.00013951
O		5.58952267		0.78167728		0.46633490		-0.00012137		-0.00000230		 0.00046693
O		7.98762736		4.32732231		0.08263792		 0.00009037		-0.00003522		-0.00003950
O		11.90288346		1.77282252		3.71091520		-0.00012137		 0.00000230		 0.00046693
O		0.27698745		3.33617708		5.57105816		 0.00009037		 0.00003522		-0.00003950
O		0.76061942		3.49966485		2.83873330		 0.00027839		-0.00035068		-0.00009205
O		12.29115218		1.60933474		0.99384795		-0.00002853		-0.00038545		 0.00016397
O		7.07398021		4.16383454		6.08331218		 0.00027839		 0.00035068		-0.00009205
O		4.58051227		0.94516505		6.48226818		-0.00002853		 0.00038545		 0.00016397
O		3.63365429		0.02452324		-0.52181931		-0.00009334		 0.00020909		 0.00022550
O		10.37078547		5.08447636		-1.59975951		-0.00005977		-0.00002114		-0.00024674
O		9.94701366		2.52997656		2.72276241		-0.00009334		-0.00020909		 0.00022550
O		2.66014415		2.57902303		3.88866073		-0.00005977		 0.00002114		-0.00024674
H		4.06747144		3.06540033		0.20014836		 0.00010519		 0.00010018		-0.00016175
H		9.67707201		2.04359927		-0.69738762		 0.00016774		 0.00052013		-0.00024044
H		10.38083223		4.59810049		3.44472723		 0.00010519		-0.00010018		-0.00016175
H		1.96643210		0.51090053		4.79103120		 0.00016774		-0.00052013		-0.00024044
H		3.15770439		0.91962067		3.32401275		 0.00002192		-0.00016340		 0.00019893
H		9.60874439		4.18938035		2.29184680		-0.00011708		 0.00025141		-0.00037418
H		9.47106375		1.63488055		6.56859305		 0.00002192		 0.00016340		 0.00019893
H		1.89810448		3.47412046		7.78026704		-0.00011708		-0.00025141		-0.00037418
