# total energy = -44010.6674783 eV	

CRYSTAL	
PRIMVEC	
		9.47071746		0.00000000		-0.07177940	
		0.00000000		17.65403007		0.00000000	
		-1.32451689		0.00000000		5.00608026	
PRIMCOORD
   82 1	
Si		2.36657877		1.47349326		1.49247734		 0.00009142		 0.00003097		 0.00019119	
Si		5.77962180		16.18053387		3.44181959		-0.00009125		-0.00003164		-0.00019121	
Si		5.77962180		1.47349326		3.44181959		-0.00009167		 0.00003132		-0.00019127	
Si		2.36657877		16.18053387		1.49247832		 0.00009100		-0.00003130		 0.00019114	
Si		7.10192670		10.30065065		1.45662593		-0.00001625		-0.00015419		 0.00015800	
Si		1.04427387		7.35337647		3.47767100		 0.00001595		 0.00015302		-0.00015804	
Si		1.04427387		10.30065065		3.47767100		 0.00001551		-0.00015310		-0.00015813	
Si		7.10192670		7.35337647		1.45662593		-0.00001669		 0.00015411		 0.00015791	
Si		1.70148292		3.03463572		4.02360186		 0.00051635		 0.00030128		 0.00022789	
Si		6.44471765		14.61939140		0.91069508		-0.00051556		-0.00030111		-0.00022776	
Si		6.44471765		3.03463572		0.91069508		-0.00051662		 0.00030197		-0.00022782	
Si		1.70148292		14.61939042		4.02360186		 0.00051531		-0.00030043		 0.00022783	
Si		6.43704488		11.86193057		3.98780248		 0.00007268		-0.00028503		 0.00022554	
Si		1.70915569		5.79209753		0.94649445		-0.00007181		 0.00028453		-0.00022538	
Si		1.70915569		11.86192959		0.94649445		-0.00007296		-0.00028353		-0.00022543	
Si		6.43704488		5.79209655		3.98780347		 0.00007154		 0.00028601		 0.00022548	
O		2.56387933		2.01244057		3.02090820		-0.00020171		 0.00000330		 0.00012625	
O		5.58232124		15.64158557		1.91338874		 0.00020166		-0.00000311		-0.00012607	
O		5.58232124		2.01244057		1.91338874		 0.00020172		 0.00000308		-0.00012604	
O		2.56387933		15.64158655		3.02090820		-0.00020165		-0.00000333		 0.00012629	
O		7.29917915		10.83955477		2.98499494		-0.00019741		 0.00011392		 0.00023941	
O		0.84702142		6.81447236		1.94930200		 0.00019739		-0.00011340		-0.00023897	
O		0.84702142		10.83955477		1.94930200		 0.00019745		 0.00011331		-0.00023887	
O		7.29917915		6.81447236		2.98499494		-0.00019734		-0.00011402		 0.00023951	
O		0.81526510		1.47806157		1.09354550		-0.00024206		 0.00025241		-0.00013689	
O		7.33093547		16.17596555		3.84075143		 0.00024194		-0.00025220		 0.00013682	
O		7.33093547		1.47806157		3.84075143		 0.00024218		 0.00025231		 0.00013688	
O		0.81526510		16.17596555		1.09354550		-0.00024182		-0.00025230		-0.00013684	
O		5.55059830		10.30527493		1.05759591		-0.00021214		 0.00025058		-0.00012340	
O		2.59560128		7.34875219		3.87670102		 0.00021224		-0.00025009		 0.00012325	
O		2.59560128		10.30527493		3.87670102		 0.00021253		 0.00025017		 0.00012332	
O		5.55059830		7.34875219		1.05759591		-0.00021186		-0.00025049		-0.00012333	
O		2.38452803		4.46142868		3.88126541		 0.00011061		-0.00035122		-0.00005063	
O		5.76167254		13.19259844		1.05303153		-0.00011089		 0.00035092		 0.00005061	
O		5.76167254		4.46142868		1.05303153		-0.00011044		-0.00035172		 0.00005062	
O		2.38452803		13.19259844		3.88126541		 0.00011106		 0.00035042		-0.00005062	
O		7.11997906		13.28838874		3.84546800		 0.00032680		 0.00011108		-0.00004876	
O		1.02622151		4.36563839		1.08882894		-0.00032688		-0.00011104		 0.00004875	
O		1.02622151		13.28838874		1.08882894		-0.00032639		 0.00011019		 0.00004875	
O		7.11997906		4.36563839		3.84546800		 0.00032728		-0.00011193		-0.00004875	
O		3.03419588		0.00000000		1.35549072		-0.00003672		 0.00000030		 0.00013738	
O		5.11200371		0.00000000		3.57880621		 0.00003670		 0.00000030		-0.00013733	
O		7.76929836		8.82701307		1.31958531		-0.00003113		 0.00000015		 0.00016531	
O		0.37690123		8.82701307		3.61471260		 0.00003110		 0.00000014		-0.00016515	
O		0.14890469		2.98108050		3.62234708		-0.00020264		 0.00007371		 0.00038762	
O		7.99729489		14.67294663		1.31194985		 0.00020204		-0.00007371		-0.00038774	
O		7.99729489		2.98108050		1.31194985		 0.00020266		 0.00007366		-0.00038760	
O		0.14890469		14.67294663		3.62234708		-0.00020202		-0.00007377		 0.00038775	
O		4.88426637		11.80858644		3.58655164		 0.00003600		 0.00010807		 0.00043736	
O		3.26193420		5.84544069		1.34774628		-0.00003684		-0.00010801		-0.00043755	
O		3.26193420		11.80858644		1.34774530		-0.00003617		 0.00010794		-0.00043740	
O		4.88426539		5.84544069		3.58655164		 0.00003666		-0.00010813		 0.00043751	
O		0.17689287		0.00000000		3.60162717		 0.00048760		 0.00000007		-0.00023731	
O		7.96930967		0.00000000		1.33267074		-0.00049705		 0.00000007		 0.00023484	
O		4.91238610		8.82701307		3.56548123		-0.00077554		 0.00000005		-0.00056567	
O		3.23382232		8.82701307		1.36881865		 0.00074257		 0.00000005		 0.00055704	
O		3.24952523		2.48005717		0.55605322		-0.00028803		 0.00002512		 0.00037573	
O		4.89667534		15.17396995		4.37824372		 0.00028807		-0.00002498		-0.00037594	
O		4.89667534		2.48005717		4.37824372		 0.00028816		 0.00002490		-0.00037599	
O		3.24952523		15.17396995		0.55605322		-0.00028794		-0.00002521		 0.00037569	
O		7.98494385		11.30706828		0.52024992		-0.00022156		 0.00016423		 0.00023853	
O		0.16125574		6.34695884		4.41404800		 0.00022180		-0.00016373		-0.00023904	
O		0.16125574		11.30706828		4.41404800		 0.00022193		 0.00016357		-0.00023915	
O		7.98494385		6.34695884		0.52024992		-0.00022143		-0.00016438		 0.00023842	
Ca		-0.66225746		4.86655666		2.50303915		-0.00000004		 0.00042076		-0.00000003	
Ca		-0.66225746		12.78747046		2.50303915		-0.00000004		-0.00042062		-0.00000003	
Ca		4.07310028		13.69403511		2.46714847		 0.00000003		 0.00027468		-0.00000001	
Ca		4.07310028		3.95999202		2.46714847		 0.00000003		-0.00027455		-0.00000001	
Mg		0.00000000		0.00000000		0.00000000		 0.00000029		-0.00000009		-0.00000009	
Mg		4.73535677		8.82701307		-0.03589068		 0.00000096		-0.00000007		-0.00000034	
Mg		0.00000000		3.05754308		0.00000000		 0.00000004		 0.00031828		0.00000000	
Mg		0.00000000		14.59648404		0.00000000		 0.00000003		-0.00031827		0.00000000	
Mg		4.73535677		11.88434605		-0.03589068		 0.00000015		 0.00047004		 0.00000007	
Mg		4.73535677		5.76968108		-0.03589068		 0.00000015		-0.00046999		 0.00000007	
Mg		-0.66225746		1.50861617		2.50303915		 0.00000022		 0.00007097		 0.00000013	
Mg		-0.66225746		16.14541096		2.50303915		 0.00000022		-0.00007110		 0.00000013	
Mg		4.07310028		10.33679758		2.46714847		 0.00000071		-0.00045393		 0.00000047	
Mg		4.07310028		7.31722954		2.46714847		 0.00000071		 0.00045383		 0.00000047	
H		1.10590538		0.00000000		3.85183301		-0.00032820		-0.00000001		-0.00010122	
H		7.04029224		0.00000000		1.08246393		 0.00033690		-0.00000001		 0.00010359	
H		5.84069860		8.82701307		3.81578622		 0.00081696		-0.00000001		 0.00020460	
H		2.30549314		8.82701307		1.11850875		-0.00078655		-0.00000001		-0.00019634	
