# total energy = -44011.6318091 eV	

CRYSTAL	
PRIMVEC	
		9.55680168		0.00000000		-0.06219703	
		0.00000000		17.76476729		0.00000000	
		-1.33112441		0.00000000		5.03293249	
PRIMCOORD
   82 1	
Si		2.37001507		1.48488214		1.49892777		-0.00008112		 0.00007613		 0.00021168	
Si		5.85565828		16.27988319		3.47180965		 0.00008103		-0.00007636		-0.00021172	
Si		5.85565828		1.48488214		3.47180965		 0.00008097		 0.00007628		-0.00021172	
Si		2.37001507		16.27988319		1.49892777		-0.00008116		-0.00007621		 0.00021168	
Si		7.14832264		10.36738654		1.46783907		-0.00011752		 0.00005481		 0.00020133	
Si		1.07735071		7.39737878		3.50289737		 0.00011746		-0.00005497		-0.00020134	
Si		1.07735071		10.36738654		3.50289737		 0.00011740		 0.00005498		-0.00020135	
Si		7.14832264		7.39737878		1.46783907		-0.00011759		-0.00005479		 0.00020131	
Si		1.71569153		3.05095520		4.04513960		 0.00016443		 0.00011444		 0.00020864	
Si		6.50998182		14.71381012		0.92559684		-0.00016436		-0.00011460		-0.00020862	
Si		6.50998280		3.05095520		0.92559684		-0.00016452		 0.00011470		-0.00020863	
Si		1.71569153		14.71381012		4.04513960		 0.00016429		-0.00011437		 0.00020864	
Si		6.49428480		11.93361473		4.01416774		 0.00008506		 0.00004379		 0.00020289	
Si		1.73138855		5.83115059		0.95656870		-0.00008493		-0.00004382		-0.00020287	
Si		1.73138855		11.93361473		0.95656870		-0.00008510		 0.00004403		-0.00020287	
Si		6.49428480		5.83115059		4.01416774		 0.00008489		-0.00004359		 0.00020288	
O		2.57539191		2.03919855		3.02416286		-0.00003279		 0.00000711		 0.00019798	
O		5.65028242		15.72556580		1.94657357		 0.00003282		-0.00000700		-0.00019786	
O		5.65028242		2.03919855		1.94657357		 0.00003279		 0.00000700		-0.00019787	
O		2.57539191		15.72556678		3.02416286		-0.00003280		-0.00000708		 0.00019796	
O		7.35372796		10.92176383		2.99307122		-0.00003319		 0.00003986		 0.00021295	
O		0.87194539		6.84300150		1.97766522		 0.00003316		-0.00003981		-0.00021288	
O		0.87194539		10.92176383		1.97766522		 0.00003320		 0.00003978		-0.00021285	
O		7.35372796		6.84300150		2.99307122		-0.00003316		-0.00003992		 0.00021298	
O		0.81583553		1.49531867		1.09795869		-0.00028767		 0.00017855		-0.00010894	
O		7.40983881		16.26944666		3.87277873		 0.00028771		-0.00017844		 0.00010894	
O		7.40983881		1.49531867		3.87277873		 0.00028774		 0.00017850		 0.00010895	
O		0.81583553		16.26944666		1.09795869		-0.00028764		-0.00017848		-0.00010894	
O		5.59416960		10.37811467		1.06675611		-0.00027296		 0.00018593		-0.00010806	
O		2.63150473		7.38665066		3.90398033		 0.00027298		-0.00018590		 0.00010805	
O		2.63150375		10.37811467		3.90398033		 0.00027302		 0.00018587		 0.00010805	
O		5.59416960		7.38665066		1.06675611		-0.00027291		-0.00018597		-0.00010805	
O		2.41943299		4.47179845		3.91581593		 0.00024268		-0.00007656		-0.00004867	
O		5.80624036		13.29296687		1.05492051		-0.00024269		 0.00007658		 0.00004868	
O		5.80624036		4.47179845		1.05492051		-0.00024260		-0.00007676		 0.00004867	
O		2.41943299		13.29296687		3.91581593		 0.00024274		 0.00007647		-0.00004868	
O		7.19805277		13.35442362		3.88493145		 0.00027445		 0.00000931		-0.00003808	
O		1.02762156		4.41034072		1.08580499		-0.00027445		-0.00000928		 0.00003807	
O		1.02762156		13.35442362		1.08580499		-0.00027439		 0.00000917		 0.00003808	
O		7.19805277		4.41034170		3.88493145		 0.00027451		-0.00000943		-0.00003807	
O		3.02109867		0.00000000		1.38199637		 0.00005490		 0.00000005		 0.00017282	
O		5.20457468		0.00000000		3.58874007		-0.00005491		 0.00000005		-0.00017281	
O		7.79921184		8.88238266		1.35086644		 0.00004717		 0.00000003		 0.00019870	
O		0.42646249		8.88238266		3.61987000		-0.00004717		 0.00000003		-0.00019867	
O		0.15794511		3.00843737		3.64226584		-0.00011163		 0.00003977		 0.00028953	
O		8.06772824		14.75632795		1.32847158		 0.00011153		-0.00003974		-0.00028954	
O		8.06772824		3.00843737		1.32847158		 0.00011163		 0.00003976		-0.00028952	
O		0.15794511		14.75632795		3.64226584		-0.00011154		-0.00003978		 0.00028954	
O		4.93644904		11.89153086		3.61129987		-0.00007758		 0.00004234		 0.00029194	
O		3.28922529		5.87323348		1.35943657		 0.00007748		-0.00004235		-0.00029196	
O		3.28922529		11.89153086		1.35943657		 0.00007755		 0.00004232		-0.00029195	
O		4.93644904		5.87323348		3.61129987		-0.00007749		-0.00004237		 0.00029196	
O		0.16470087		0.00000000		3.61590451		-0.00047550		 0.00000005		-0.00037431	
O		8.06097444		0.00000000		1.35483291		 0.00047110		 0.00000004		 0.00037315	
O		4.94294365		8.88238266		3.58446040		-0.00051012		-0.00000002		-0.00036910	
O		3.28273167		8.88238266		1.38627702		 0.00050495		-0.00000001		 0.00036773	
O		3.26265288		2.47569013		0.54957923		-0.00016068		 0.00005445		 0.00031689	
O		4.96302047		15.28907520		4.42115721		 0.00016074		-0.00005432		-0.00031700	
O		4.96302047		2.47569013		4.42115721		 0.00016075		 0.00005436		-0.00031698	
O		3.26265288		15.28907520		0.54957923		-0.00016067		-0.00005443		 0.00031689	
O		8.04111656		11.35817097		0.51856515		-0.00015569		 0.00007057		 0.00028987	
O		0.18455778		6.40659338		4.45217227		 0.00015573		-0.00007053		-0.00028995	
O		0.18455778		11.35817097		4.45217227		 0.00015575		 0.00007046		-0.00028998	
O		8.04111656		6.40659338		0.51856515		-0.00015567		-0.00007062		 0.00028985	
Ca		-0.66556318		4.90407615		2.51646428		-0.00000000		 0.00034014		0.00000000	
Ca		-0.66556318		12.86068918		2.51646428		-0.00000001		-0.00034012		-0.00000001	
Ca		4.11283668		13.78687804		2.48536871		-0.00000000		 0.00031160		-0.00000002	
Ca		4.11283668		3.97788729		2.48536871		 0.00000001		-0.00031157		0.00000000	
Mg		0.00000000		0.00000000		0.00000000		 0.00000012		-0.00000005		-0.00000004	
Mg		4.77839986		8.88238266		-0.03109655		 0.00000015		 0.00000003		-0.00000006	
Mg		0.00000000		3.08762936		0.00000000		 0.00000002		 0.00063543		 0.00000001	
Mg		0.00000000		14.67713597		0.00000000		 0.00000002		-0.00063546		0.00000000	
Mg		4.77839986		11.97094081		-0.03109655		 0.00000003		 0.00040708		 0.00000002	
Mg		4.77839986		5.79382452		-0.03109655		 0.00000002		-0.00040705		 0.00000001	
Mg		-0.66556318		1.52607748		2.51646428		 0.00000009		 0.00024642		 0.00000006	
Mg		-0.66556318		16.23868785		2.51646428		 0.00000009		-0.00024650		 0.00000005	
Mg		4.11283668		10.40970114		2.48536871		 0.00000011		-0.00020258		 0.00000007	
Mg		4.11283668		7.35506419		2.48536871		 0.00000010		 0.00020260		 0.00000007	
H		1.09291813		0.00000000		3.86811223		 0.00059086		-0.00000000		 0.00022157	
H		7.13275522		0.00000000		1.10262519		-0.00058677		-0.00000000		-0.00022046	
H		5.87108040		8.88238266		3.83694794		 0.00060876		-0.00000000		 0.00022586	
H		2.35459295		8.88238266		1.13378850		-0.00060397		-0.00000000		-0.00022455	
