# total energy = -44012.9448898 eV	

CRYSTAL	
PRIMVEC	
		9.76929265		0.00000000		-0.02434864	
		0.00000000		18.00500393		0.00000000	
		-1.34023551		0.00000000		5.09822218	
PRIMCOORD
   82 1	
Si		2.37681109		1.51053559		1.51087627		-0.00054525		-0.00005835		 0.00007087	
Si		6.05224998		16.49446637		3.56300218		 0.00054532		 0.00005849		-0.00007086	
Si		6.05224998		1.51053559		3.56300218		 0.00054533		-0.00005845		-0.00007086	
Si		2.37681109		16.49446736		1.51087627		-0.00054524		 0.00005838		 0.00007087	
Si		7.26162530		10.51279603		1.49871570		-0.00051247		-0.00003844		 0.00008022	
Si		1.16743675		7.49220593		3.57516276		 0.00051251		 0.00003854		-0.00008021	
Si		1.16743675		10.51279603		3.57516276		 0.00051254		-0.00003855		-0.00008021	
Si		7.26162530		7.49220593		1.49871570		-0.00051244		 0.00003843		 0.00008023	
Si		1.75363024		3.08704912		4.09509948		-0.00028969		-0.00020299		 0.00011393	
Si		6.67543181		14.91795285		0.97877898		 0.00028968		 0.00020312		-0.00011394	
Si		6.67543181		3.08704912		0.97877898		 0.00028971		-0.00020315		-0.00011394	
Si		1.75363024		14.91795285		4.09509948		-0.00028965		 0.00020298		 0.00011393	
Si		6.63820293		12.08903073		4.08288392		-0.00020477		-0.00011532		 0.00012521	
Si		1.79085814		5.91597124		0.99099551		 0.00020471		 0.00011542		-0.00012521	
Si		1.79085814		12.08903073		0.99099551		 0.00020479		-0.00011548		-0.00012520	
Si		6.63820293		5.91597124		4.08288392		-0.00020470		 0.00011525		 0.00012521	
O		2.60300700		2.10093413		3.02762175		 0.00035128		 0.00015412		 0.00024214	
O		5.82605407		15.90406783		2.04625769		-0.00035129		-0.00015417		-0.00024220	
O		5.82605407		2.10093413		2.04625769		-0.00035129		 0.00015417		-0.00024219	
O		2.60300700		15.90406783		3.02762175		 0.00035128		-0.00015412		 0.00024216	
O		7.48771813		11.10281952		3.01561139		 0.00034119		 0.00016025		 0.00022388	
O		0.94134393		6.90218244		2.05826805		-0.00034121		-0.00016031		-0.00022389	
O		0.94134393		11.10281952		2.05826805		-0.00034120		 0.00016031		-0.00022392	
O		7.48771714		6.90218244		3.01561139		 0.00034120		-0.00016025		 0.00022386	
O		0.81559302		1.53700295		1.10847279		 0.00003306		-0.00003525		 0.00008717	
O		7.61346805		16.46799901		3.96540566		-0.00003311		 0.00003520		-0.00008714	
O		7.61346805		1.53700295		3.96540566		-0.00003311		-0.00003520		-0.00008715	
O		0.81559302		16.46799901		1.10847279		 0.00003305		 0.00003526		 0.00008716	
O		5.70040723		10.53903365		1.09639272		-0.00001602		 0.00000289		 0.00007123	
O		2.72865482		7.46596831		3.97748573		 0.00001600		-0.00000294		-0.00007120	
O		2.72865482		10.53903365		3.97748573		 0.00001597		 0.00000295		-0.00007121	
O		5.70040723		7.46596831		1.09639272		-0.00001604		-0.00000288		 0.00007122	
O		2.50975368		4.49099854		4.00367623		 0.00033972		-0.00014217		-0.00008525	
O		5.91930739		13.51400343		1.07020321		-0.00033971		 0.00014213		 0.00008525	
O		5.91930739		4.49099854		1.07020321		-0.00033974		-0.00014211		 0.00008525	
O		2.50975368		13.51400343		4.00367623		 0.00033969		 0.00014219		-0.00008525	
O		7.39430968		13.49300960		3.99125057		 0.00030654		-0.00016203		-0.00006940	
O		1.03475139		4.51199335		1.08262789		-0.00030653		 0.00016203		 0.00006939	
O		1.03475139		13.49300960		1.08262789		-0.00030658		-0.00016196		 0.00006939	
O		7.39430968		4.51199335		3.99125057		 0.00030650		 0.00016210		-0.00006940	
O		2.98739053		0.00000000		1.44066481		-0.00000792		-0.00000005		 0.00031363	
O		5.44167152		0.00000000		3.63321364		 0.00000791		-0.00000005		-0.00031364	
O		7.87262790		9.00250098		1.42810268		-0.00002749		-0.00000000		 0.00032465	
O		0.55643415		9.00250098		3.64577577		 0.00002749		0.00000000		-0.00032466	
O		0.18440560		3.07414434		3.68944329		 0.00005938		 0.00005351		 0.00013989	
O		8.24465645		14.93085763		1.38443614		-0.00005937		-0.00005354		-0.00013987	
O		8.24465645		3.07414434		1.38443614		-0.00005938		 0.00005354		-0.00013987	
O		0.18440560		14.93085763		3.68944329		 0.00005937		-0.00005352		 0.00013988	
O		5.06902934		12.07588737		3.67721301		 0.00003011		 0.00009163		 0.00014067	
O		3.36003173		5.92911459		1.39666545		-0.00003003		-0.00009166		-0.00014065	
O		3.36003173		12.07588737		1.39666545		-0.00003008		 0.00009167		-0.00014067	
O		5.06902934		5.92911459		3.67721301		 0.00003007		-0.00009163		 0.00014065	
O		0.14139687		0.00000000		3.65195228		-0.00061683		 0.00000001		-0.00010765	
O		8.28766322		0.00000000		1.42192618		 0.00062057		 0.00000001		 0.00010862	
O		5.02624054		9.00250098		3.63999003		-0.00072526		-0.00000002		-0.00014554	
O		3.40282053		9.00250098		1.43388843		 0.00072960		-0.00000002		 0.00014669	
O		3.28941184		2.45957388		0.52764582		 0.00024447		 0.00005203		 0.00025322	
O		5.13965022		15.54542906		4.54623264		-0.00024450		-0.00005210		-0.00025316	
O		5.13965022		2.45957290		4.54623264		-0.00024450		 0.00005210		-0.00025318	
O		3.28941184		15.54542906		0.52764582		 0.00024447		-0.00005202		 0.00025320	
O		8.17411805		11.46201301		0.51558735		 0.00021911		 0.00004357		 0.00026400	
O		0.25494302		6.54298994		4.55829111		-0.00021914		-0.00004363		-0.00026398	
O		0.25494302		11.46201301		4.55829111		-0.00021915		 0.00004364		-0.00026395	
O		8.17411805		6.54298994		0.51558735		 0.00021911		-0.00004356		 0.00026402	
Ca		-0.67011775		4.98921588		2.54911109		-0.00000000		-0.00009725		 0.00000001	
Ca		-0.67011775		13.01578608		2.54911109		-0.00000000		 0.00009725		 0.00000001	
Ca		4.21453053		13.99115134		2.53693972		0.00000000		-0.00007601		0.00000000	
Ca		4.21453053		4.01385062		2.53693972		0.00000000		 0.00007601		0.00000000	
Mg		0.00000000		0.00000000		0.00000000		-0.00000009		-0.00000001		 0.00000004	
Mg		4.88464829		9.00250098		-0.01217236		-0.00000011		0.00000000		 0.00000004	
Mg		0.00000000		3.16188682		0.00000000		-0.00000001		 0.00000515		-0.00000003	
Mg		0.00000000		14.84311514		0.00000000		-0.00000001		-0.00000515		-0.00000002	
Mg		4.88464829		12.16366814		-0.01217236		-0.00000002		 0.00005741		0.00000000	
Mg		4.88464829		5.84133382		-0.01217236		-0.00000002		-0.00005743		0.00000000	
Mg		-0.67011775		1.56538188		2.54911109		-0.00000008		 0.00029285		-0.00000003	
Mg		-0.67011775		16.43962008		2.54911109		-0.00000007		-0.00029286		-0.00000004	
Mg		4.21453053		10.56711608		2.53693972		-0.00000008		 0.00027213		-0.00000005	
Mg		4.21453053		7.43788589		2.53693972		-0.00000009		-0.00027210		-0.00000006	
H		1.06918508		0.00000000		3.90855748		 0.00040763		-0.00000000		 0.00018842	
H		7.35987697		0.00000000		1.16532195		-0.00041109		0.00000000		-0.00018939	
H		5.95402090		9.00250098		3.89643716		 0.00048219		0.00000000		 0.00020896	
H		2.47504214		9.00250098		1.17744129		-0.00048623		-0.00000000		-0.00021009	
