# total energy = -18531.3090176 eV

CRYSTAL
PRIMVEC
		4.68599846		-0.37487894		0.00000000
		-2.66765534		4.24563500		0.00000000
		0.00000000		0.00000000		13.29099906
PRIMECORD
   30 1
O		1.41489686		0.01825904		3.21110593		-0.00037019		 0.00035653		 0.00026619
O		0.60344720		3.85249561		10.07989359		 0.00037019		-0.00035653		-0.00026619
O		3.76521785		0.85965906		3.21110593		-0.00015302		 0.00020378		-0.00003751
O		-1.74687379		3.01109607		10.07989359		 0.00015302		-0.00020378		 0.00003751
O		1.52422875		2.61795668		3.21110593		 0.00062249		-0.00079366		 0.00040258
O		0.49411578		1.25279797		10.07989359		-0.00062249		 0.00079366		-0.00040258
O		3.64967880		1.18354985		7.64143879		-0.00035859		 0.00033895		 0.00025572
O		0.81988414		1.14703318		1.21922787		 0.00034813		-0.00033357		-0.00026054
O		1.31399992		2.39983068		7.64143879		-0.00014719		 0.00017576		-0.00004197
O		3.15556302		-0.06924812		1.21922787		 0.00013645		-0.00022035		 0.00003637
O		1.74066569		-0.08750623		7.64143879		 0.00062595		-0.00081089		 0.00040048
O		2.72889677		2.41808972		1.21922787		-0.00060129		 0.00079898		-0.00040183
O		1.19845992		2.72372195		12.07177260		-0.00034813		 0.00033357		 0.00026054
O		-1.63133380		2.68720480		5.64956073		 0.00035859		-0.00033895		-0.00025572
O		-1.13721896		3.94000278		12.07177260		-0.00013645		 0.00022035		-0.00003637
O		0.70434414		1.47092397		5.64956073		 0.00014719		-0.00017576		 0.00004197
O		-0.71055319		1.45266493		12.07177260		 0.00060129		-0.00079898		 0.00040183
O		0.27767884		3.95826088		5.64956073		-0.00062595		 0.00081089		-0.00040048
Mg		0.00000000		0.00000000		4.76615284		-0.00027111		-0.00035684		 0.00014832
Mg		0.00000000		0.00000000		8.52484669		 0.00027111		 0.00035684		-0.00014832
Mg		2.23478100		1.16529175		9.19648570		-0.00027453		-0.00038345		 0.00011295
Mg		2.23478100		1.16529175		12.95518049		 0.00028984		 0.00034582		-0.00002694
Mg		-0.21643694		2.70546290		0.33581904		-0.00028984		-0.00034582		 0.00002694
Mg		-0.21643694		2.70546290		4.09451382		 0.00027453		 0.00038345		-0.00011295
Si		0.00000000		0.00000000		2.08668678		 0.00020996		-0.00023339		-0.00018813
Si		0.00000000		0.00000000		11.20431228		-0.00020996		 0.00023339		 0.00018813
Si		2.23478100		1.16529175		6.51702058		 0.00021909		-0.00023224		-0.00018301
Si		2.23478100		1.16529175		2.34364609		-0.00021384		 0.00023833		 0.00019456
Si		-0.21643694		2.70546290		10.94735344		 0.00021384		-0.00023833		-0.00019456
Si		-0.21643694		2.70546290		6.77397989		-0.00021909		 0.00023224		 0.00018301
