# total energy = -21542.0875506 eV	

CRYSTAL	
PRIMVEC	
		5.18479989		0.00000000		0.00000000	
		0.00000000		8.92299913		-0.71383806	
		-0.14435001		-0.84572900		9.19705210	
PRIMCOORD
   42 1	
Mg		0.00000000		0.00000000		0.00000000		0.00000000		0.00000000		0.00000000	
Mg		2.59239994		4.46150008		-0.35692007		0.00000000		0.00000000		0.00000000	
Mg		2.59239994		1.48648316		-0.11891909		 0.00002400		 0.00018504		 0.00001940	
Mg		2.59239994		7.43651804		-0.59492105		-0.00002400		-0.00018504		-0.00001940	
Mg		0.00000000		5.94798273		-0.47583916		 0.00002592		 0.00023297		 0.00002171	
Mg		0.00000000		2.97501692		-0.23800098		-0.00002592		-0.00023297		-0.00002171	
Si		4.28040591		1.24251811		2.55725270		 0.00047888		-0.00026830		 0.00021318	
Si		0.76004293		6.83475564		5.92595977		-0.00047888		 0.00026830		-0.00021318	
Si		1.68800597		5.70401767		2.20033315		 0.00041218		 0.00004238		 0.00028871	
Si		3.35244287		2.37325608		6.28287984		-0.00041218		-0.00004238		-0.00028871	
Si		1.68800597		2.72676974		2.43851197		 0.00033912		-0.00046760		 0.00057165	
Si		3.35244287		5.35050402		6.04470102		-0.00033912		 0.00046760		-0.00057165	
Si		4.28040591		7.18826982		2.08159190		 0.00036226		-0.00026228		 0.00049269	
Si		0.76004293		0.88900394		6.40162109		-0.00036226		 0.00026228		-0.00049269	
O		1.71272606		2.87216915		0.84384277		 0.00014763		 0.00041523		 0.00042368	
O		3.32772382		5.20510408		7.63936867		-0.00014763		-0.00041523		-0.00042368	
O		4.30512600		7.33366872		0.48692322		 0.00014397		 0.00038434		 0.00041688	
O		0.73532387		0.74360400		7.99628874		-0.00014397		-0.00038434		-0.00041688	
O		4.30512600		1.39050474		0.96237611		-0.00013465		 0.00043090		 0.00032064	
O		0.73532387		6.68676798		7.52083585		 0.00013465		-0.00043090		-0.00032064	
O		1.71272606		5.85200586		0.60545604		-0.00013076		 0.00039280		 0.00029810	
O		3.32772382		2.22526789		7.87775591		 0.00013076		-0.00039280		-0.00029810	
O		1.71012899		-0.09522922		1.03558808		-0.00049770		-0.00005400		-0.00065086	
O		3.33031985		-0.75049823		8.16146505		 0.00049770		 0.00005400		 0.00065086	
O		4.30252893		4.36627086		0.67866801		-0.00050057		-0.00005961		-0.00071421	
O		0.73792094		3.71100185		7.80454498		 0.00050057		 0.00005961		 0.00071421	
O		1.77272715		4.16710300		2.84457409		 0.00055557		-0.00015233		-0.00018833	
O		3.26772168		3.91017076		5.63863890		-0.00055557		 0.00015233		 0.00018833	
O		4.36512710		-0.29439709		3.20149416		 0.00053446		-0.00008623		-0.00024124	
O		0.67532174		-0.55132881		5.99555897		-0.00053446		 0.00008623		 0.00024124	
O		2.93016995		1.85528005		3.03682284		 0.00028181		 0.00015028		 0.00087641	
O		2.11027888		6.22199370		5.44638963		-0.00028181		-0.00015028		-0.00087641	
O		0.33777001		6.31677962		2.67990277		 0.00053005		-0.00001654		 0.00087730	
O		4.70267986		1.76049414		5.80330970		-0.00053005		 0.00001654		-0.00087730	
O		0.33771816		2.01607211		3.02395987		 0.00036776		 0.00030498		 0.00089222	
O		4.70273067		6.06120165		5.45925312		-0.00036776		-0.00030498		-0.00089222	
O		2.93011914		6.47757167		2.66703980		 0.00015168		 0.00015004		 0.00089193	
O		2.11033073		1.59970105		5.81617267		-0.00015168		-0.00015004		-0.00089193	
H		1.69733912		-0.15803011		1.86590993		 0.00018103		-0.00055069		-0.00080948	
H		3.34311075		8.23530386		6.61730306		-0.00018103		 0.00055069		 0.00080948	
H		4.28973907		4.30346997		1.50898986		 0.00018403		-0.00054164		-0.00075102	
H		0.75071081		3.77380378		6.97422261		-0.00018403		 0.00054164		 0.00075102	
