# total energy = -21542.085604 eV	

CRYSTAL	
PRIMVEC	
		5.18479989		0.00000000		0.00000000	
		0.00000000		8.92299913		-0.35692162	
		-0.14435001		-0.47819928		9.19262428	
PRIMCOORD
   42 1	
Mg		0.00000000		0.00000000		0.00000000		0.00000000		0.00000000		0.00000000	
Mg		2.59239994		4.46150008		-0.17845978		0.00000000		0.00000000		0.00000000	
Mg		2.59239994		1.48648316		-0.05945877		 0.00014191		 0.00009055		-0.00018237	
Mg		2.59239994		7.43651804		-0.29746078		-0.00014191		-0.00009055		 0.00018237	
Mg		0.00000000		5.94798273		-0.23791906		 0.00014015		 0.00005956		-0.00018664	
Mg		0.00000000		2.97501692		-0.11900101		-0.00014015		-0.00005956		 0.00018664	
Si		4.28040591		1.34946809		2.61550912		 0.00023023		 0.00017352		 0.00032499	
Si		0.76004293		7.09533280		6.22019665		-0.00023023		-0.00017352		-0.00032499	
Si		1.68800597		5.81096869		2.43704882		 0.00028012		-0.00010733		 0.00027285	
Si		3.35244287		2.63383272		6.39865694		-0.00028012		 0.00010733		-0.00027285	
Si		1.68800597		2.83371971		2.55613901		 0.00018819		 0.00000180		 0.00063979	
Si		3.35244287		5.61108065		6.27956675		-0.00018819		-0.00000180		-0.00063979	
Si		4.28040591		7.29521980		2.37767872		 0.00017060		-0.00015596		 0.00068658	
Si		0.76004293		1.14958109		6.45802705		-0.00017060		 0.00015596		-0.00068658	
O		1.71272606		2.91539016		0.96218790		 0.00043114		 0.00024298		 0.00042963	
O		3.32772382		5.52941072		7.87351786		-0.00043114		-0.00024298		-0.00042963	
O		4.30512600		7.37689076		0.78372813		 0.00043331		 0.00026692		 0.00045046	
O		0.73532387		1.06791116		8.05197763		-0.00043331		-0.00026692		-0.00045046	
O		4.30512600		1.43372575		1.02145380		 0.00002075		-0.00010288		 0.00046494	
O		0.73532387		7.01107462		7.81425197		-0.00002075		 0.00010288		-0.00046494	
O		1.71272606		5.89522687		0.84299402		 0.00001793		-0.00007384		 0.00047953	
O		3.32772382		2.54957505		7.99271174		-0.00001793		 0.00007384		-0.00047953	
O		1.71012899		-0.05384518		1.03508982		-0.00015768		 0.00003280		-0.00020115	
O		3.33031985		-0.42435409		8.15753705		 0.00015768		-0.00003280		 0.00020115	
O		4.30252893		4.40765490		0.85663004		-0.00015335		 0.00003877		-0.00016566	
O		0.73792094		4.03714702		7.97907675		 0.00015335		-0.00003877		 0.00016566	
O		1.77272715		4.29503897		3.02149295		-0.00008890		-0.00016134		 0.00004116	
O		3.26772168		4.14976192		5.81421282		 0.00008890		 0.00016134		-0.00004116	
O		4.36512710		-0.16646111		3.19995272		-0.00006931		-0.00025145		 0.00009526	
O		0.67532174		-0.31173817		5.99267311		 0.00006931		 0.00025145		-0.00009526	
O		2.93016995		1.98351001		3.12129308		 0.00028826		-0.00005230		 0.00014491	
O		2.11027888		6.46129088		5.71441268		-0.00028826		 0.00005230		-0.00014491	
O		0.33777001		6.44501009		2.94283279		 0.00008755		 0.00008458		 0.00014727	
O		4.70267986		1.99979080		5.89287297		-0.00008755		-0.00008458		-0.00014727	
O		0.33771816		2.14430309		3.11486082		 0.00007836		 0.00026435		 0.00008093	
O		4.70273067		6.30049883		5.72084494		-0.00007836		-0.00026435		-0.00008093	
O		2.93011914		6.60580266		2.93640105		 0.00026396		 0.00039805		 0.00008692	
O		2.11033073		1.83899875		5.89930472		-0.00026396		-0.00039805		-0.00008692	
H		1.69733912		-0.08342187		1.86555685		-0.00012900		-0.00047223		-0.00027668	
H		3.34311075		8.52822380		6.97014892		 0.00012900		 0.00047223		 0.00027668	
H		4.28973907		4.37807769		1.68709707		-0.00013181		-0.00047725		-0.00031018	
H		0.75071081		4.06672372		7.14860869		 0.00013181		 0.00047725		 0.00031018	
