# total energy = -24715.2062742 eV	

CRYSTAL	
PRIMVEC	
		9.27320348		0.00000000		1.48371669	
		0.00000000		8.72660117		0.00000000	
		0.85147651		0.00000000		5.32170000	
PRIMCOORD
   40 1	
Mg		0.21286819		7.89582745		1.33042500		0.00000000		 0.00067340		0.00000000	
Mg		0.63860362		0.83077185		3.99127500		0.00000000		-0.00067340		0.00000000	
Mg		5.27520443		5.19407243		4.73313146		0.00000000		-0.00058964		0.00000000	
Mg		4.84946805		3.53252780		2.07228147		0.00000000		 0.00058964		0.00000000	
Mg		0.21286819		2.30993101		1.33042500		0.00000000		-0.00040665		0.00000000	
Mg		0.63860362		6.41666922		3.99127500		0.00000000		 0.00040665		0.00000000	
Mg		5.27520443		2.05336863		4.73313146		0.00000000		 0.00028198		0.00000000	
Mg		4.84946805		6.67323066		2.07228147		0.00000000		-0.00028198		0.00000000	
Si		2.76262843		0.79935658		0.78737160		 0.00022937		-0.00000332		-0.00011387	
Si		7.36204405		7.92724271		6.01804039		-0.00022937		 0.00000332		 0.00011387	
Si		2.41312375		3.56394307		3.32418427		-0.00019544		 0.00037397		 0.00022591	
Si		7.71154779		5.16265623		3.48122772		 0.00019544		-0.00037397		-0.00022591	
Si		6.93630767		0.79935658		3.35719039		-0.00022937		-0.00000332		 0.00011387	
Si		3.18836387		7.92724271		3.44822348		 0.00022937		 0.00000332		-0.00011387	
Si		8.13728416		3.56394307		6.14207772		 0.00019544		 0.00037397		-0.00022591	
Si		1.98738831		5.16265623		0.66333427		-0.00019544		-0.00037397		 0.00022591	
O		1.15518338		0.81681003		0.59551798		 0.00023233		-0.00027531		-0.00002426	
O		8.96948910		7.90979020		6.20989401		-0.00023233		 0.00027531		 0.00002426	
O		4.04202569		3.54648962		3.65014534		-0.00020578		-0.00029398		 0.00008910	
O		6.08264585		5.18010873		3.15526665		 0.00020578		 0.00029398		-0.00008910	
O		8.54375272		0.81681003		3.54904401		-0.00023233		-0.00027531		 0.00002426	
O		1.58091882		7.90979020		3.25636798		 0.00023233		 0.00027531		-0.00002426	
O		6.50838222		3.54648962		5.81611665		 0.00020578		-0.00029398		-0.00008910	
O		3.61629026		5.18010873		0.98929534		-0.00020578		 0.00029398		 0.00008910	
O		3.55281831		2.18688633		0.93143273		-0.00012280		 0.00030595		-0.00036734	
O		6.57185417		6.53971390		5.87397926		 0.00012280		-0.00030595		 0.00036734	
O		1.62872445		2.17641426		3.21631098		 0.00018421		 0.00046483		 0.00020201	
O		8.49594803		6.55018597		3.58910101		-0.00018421		-0.00046483		-0.00020201	
O		6.14611779		2.18688633		3.21312926		 0.00012280		 0.00030595		 0.00036734	
O		3.97855375		6.53971390		3.59228273		-0.00012280		-0.00030595		-0.00036734	
O		8.92168440		2.17641426		6.24995195		-0.00018421		 0.00046483		-0.00020201	
O		1.20298807		6.55018597		0.55546098		 0.00018421		-0.00046483		 0.00020201	
O		3.49371983		8.50232556		2.05863237		 0.00016198		-0.00010970		-0.00023885	
O		6.63095171		0.22427280		4.74677962		-0.00016198		 0.00010970		 0.00023885	
O		2.06110694		4.58757338		4.42214645		-0.00035691		 0.00010692		-0.00012394	
O		8.06356460		4.13902591		2.38326554		 0.00035691		-0.00010692		 0.00012394	
O		6.20521628		8.50232556		2.08592962		-0.00016198		-0.00010970		 0.00023885	
O		3.91945620		0.22427280		4.71948237		 0.00016198		 0.00010970		-0.00023885	
O		8.48930098		4.58757338		5.04411648		 0.00035691		 0.00010692		 0.00012394	
O		1.63537056		4.13902591		1.76129645		-0.00035691		-0.00010692		-0.00012394	
