# total energy = -24715.417909 eV	

CRYSTAL	
PRIMVEC	
		9.27319719		0.00000000		-0.74185391	
		0.00000000		8.72660031		0.00000000	
		-0.42573456		0.00000000		5.32170062	
PRIMCOORD
   40 1	
Mg		-0.10643364		7.89582718		1.33042515		0.00000000		-0.00088214		0.00000000	
Mg		-0.31930185		0.83077219		3.99127453		0.00000000		 0.00088214		0.00000000	
Mg		4.31729768		5.19407142		3.62034664		0.00000000		-0.00087166		0.00000000	
Mg		4.53016589		3.53252796		0.95949727		0.00000000		 0.00087166		0.00000000	
Mg		-0.10643364		2.30993094		1.33042515		0.00000000		 0.00024210		0.00000000	
Mg		-0.31930185		6.41666844		3.99127453		0.00000000		-0.00024210		0.00000000	
Mg		4.31729768		2.05336921		3.62034664		0.00000000		 0.00023961		0.00000000	
Mg		4.53016589		6.67323109		0.95949727		0.00000000		-0.00023961		0.00000000	
Si		2.67756563		0.79935655		0.13795162		-0.00017309		 0.00025788		 0.00025320	
Si		6.16989793		7.92724283		4.44189229		 0.00017309		-0.00025788		-0.00025320	
Si		1.68945752		3.56394268		2.86082108		 0.00012051		 0.00069813		-0.00011773	
Si		7.15800604		5.16265577		1.71902283		-0.00012051		-0.00069813		 0.00011773	
Si		6.38276614		0.79935655		1.78104199		 0.00017309		 0.00025788		-0.00025320	
Si		2.46469835		7.92724283		2.79880193		-0.00017309		-0.00025788		 0.00025320	
Si		6.94513783		3.56394268		4.37987314		-0.00012051		 0.00069813		 0.00011773	
Si		1.90232573		5.16265577		0.19997077		 0.00012051		-0.00069813		-0.00011773	
O		1.05402794		0.81680958		0.33445895		-0.00012353		-0.00047964		 0.00028762	
O		7.79343562		7.90978980		4.24538496		 0.00012353		 0.00047964		-0.00028762	
O		3.30226718		3.54648964		2.79842051		-0.00007619		-0.00001763		 0.00012903	
O		5.54519545		5.18010880		1.78142433		 0.00007619		 0.00001763		-0.00012903	
O		8.00630383		0.81680958		1.58453466		 0.00012353		-0.00047964		-0.00028762	
O		0.84115973		7.90978980		2.99530925		-0.00012353		 0.00047964		 0.00028762	
O		5.33232817		3.54648964		4.44227371		 0.00007619		-0.00001763		-0.00012903	
O		3.51513447		5.18010880		0.13757020		-0.00007619		 0.00001763		 0.00012903	
O		3.46341261		2.18688617		0.09306176		-0.00047474		 0.00020244		 0.00010313	
O		5.38405095		6.53971413		4.48678215		 0.00047474		-0.00020244		-0.00010313	
O		0.90071643		2.17641398		2.94189801		 0.00043159		 0.00060961		-0.00055936	
O		7.94674807		6.55018540		1.63794591		-0.00043159		-0.00060961		 0.00055936	
O		5.59691916		2.18688617		1.82593185		 0.00047474		 0.00020244		-0.00010313	
O		3.25054533		6.53971413		2.75391207		-0.00047474		-0.00020244		 0.00010313	
O		7.73387985		2.17641398		4.29879621		-0.00043159		 0.00060961		 0.00055936	
O		1.11358371		6.55018540		0.28104770		 0.00043159		-0.00060961		-0.00055936	
O		3.12435155		8.50232590		1.27923821		-0.00023930		-0.00023987		 0.00023432	
O		5.72311201		0.22427255		3.30060570		 0.00023930		 0.00023987		-0.00023432	
O		1.05313487		4.58757270		4.08875606		 0.00051856		-0.00009274		 0.00010146	
O		7.79432869		4.13902575		0.49108785		-0.00051856		 0.00009274		-0.00010146	
O		5.93598022		8.50232590		0.63975632		 0.00023930		-0.00023987		-0.00023432	
O		2.91148427		0.22427255		3.94008759		-0.00023930		 0.00023987		 0.00023432	
O		7.58146048		4.58757270		3.15193816		-0.00051856		-0.00009274		-0.00010146	
O		1.26600308		4.13902575		1.42790575		 0.00051856		 0.00009274		 0.00010146	
