# total energy = -24716.1054164 eV	

CRYSTAL	
PRIMVEC	
		9.27320145		0.00000000		-1.11278193	
		0.00000000		8.72660319		0.00000000	
		-0.63860393		0.00000000		5.32170249	
PRIMCOORD
   40 1	
Mg		-0.15965145		7.89582688		1.33042469		0.00000000		 0.00006276		0.00000000	
Mg		-0.47895341		0.83077164		3.99127500		0.00000000		-0.00006276		0.00000000	
Mg		4.15764732		5.19407230		3.43488310		0.00000000		 0.00042270		0.00000000	
Mg		4.47694928		3.53252809		0.77403279		0.00000000		-0.00042270		0.00000000	
Mg		-0.15965145		2.30993057		1.33042469		0.00000000		 0.00010536		0.00000000	
Mg		-0.47895341		6.41666889		3.99127500		0.00000000		-0.00010536		0.00000000	
Mg		4.15764732		2.05336916		3.43488310		0.00000000		 0.00018973		0.00000000	
Mg		4.47694928		6.67323123		0.77403279		0.00000000		-0.00018973		0.00000000	
Si		2.66338885		0.79935746		0.02971528		 0.00027503		 0.00008602		-0.00019934	
Si		5.97120681		7.92724293		4.17920061		-0.00027503		-0.00008602		 0.00019934	
Si		1.56884741		3.56394320		2.78359395		-0.00032410		 0.00000181		-0.00039151	
Si		7.06574919		5.16265626		1.42532193		 0.00032410		-0.00000181		 0.00039151	
Si		6.29050877		0.79935746		1.51835123		-0.00027503		 0.00008602		 0.00019934	
Si		2.34408689		7.92724293		2.69056466		 0.00027503		-0.00008602		-0.00019934	
Si		6.74644723		3.56394320		4.08617224		 0.00032410		 0.00000181		 0.00039151	
Si		1.88814937		5.16265626		0.12274364		-0.00032410		-0.00000181		-0.00039151	
O		1.03716936		0.81680968		0.29094935		 0.00031691		 0.00028777		 0.00030491	
O		7.59742723		7.90978978		3.91796654		-0.00031691		-0.00028777		-0.00030491	
O		3.17897361		3.54649005		2.65646624		-0.00041216		-0.00022249		-0.00028488	
O		5.45562205		5.18010941		1.55244964		 0.00041216		 0.00022249		 0.00028488	
O		7.91672920		0.81680968		1.25711716		-0.00031691		 0.00028777		-0.00030491	
O		0.71786740		7.90978978		2.95179873		 0.00031691		-0.00028777		 0.00030491	
O		5.13632009		3.54649005		4.21329995		 0.00041216		-0.00022249		 0.00028488	
O		3.49827557		5.18010941		-0.00438407		-0.00041216		 0.00022249		-0.00028488	
O		3.44851163		2.18688618		-0.04666689		-0.00006464		 0.00029737		 0.00062549	
O		5.18608310		6.53971421		4.25558277		 0.00006464		-0.00029737		-0.00062549	
O		0.77938072		2.17641355		2.89616290		 0.00012631		-0.00020207		-0.00010748	
O		7.85521494		6.55018591		1.31275299		-0.00012631		 0.00020207		 0.00010748	
O		5.50538506		2.18688618		1.59473340		 0.00006464		 0.00029737		-0.00062549	
O		3.12920967		6.53971421		2.61418342		-0.00006464		-0.00029737		 0.00062549	
O		7.53591298		2.17641355		3.97360330		-0.00012631		-0.00020207		 0.00010748	
O		1.09868268		6.55018591		0.23531259		 0.00012631		 0.00020207		-0.00010748	
O		3.06279019		8.50232549		1.14933856		-0.00011559		 0.00019652		-0.00004699	
O		5.57180640		0.22427303		3.05957732		 0.00011559		-0.00019652		 0.00004699	
O		0.88513913		4.58757276		4.03319077		 0.00014314		-0.00013623		-0.00004053	
O		7.74945653		4.13902577		0.17572512		-0.00014314		 0.00013623		 0.00004053	
O		5.89110837		8.50232549		0.39872701		 0.00011559		 0.00019652		 0.00004699	
O		2.74348823		0.22427303		3.81018887		-0.00011559		-0.00019652		-0.00004699	
O		7.43015457		4.58757276		2.83657543		-0.00014314		-0.00013623		 0.00004053	
O		1.20444109		4.13902577		1.37234139		 0.00014314		 0.00013623		-0.00004053	
