# total energy = -20636.8676332 eV

CRYSTAL
PRIMVEC
		5.22059978		0.00000000		0.00000000
		0.00000000		10.17999730		0.00000000
		0.00000000		0.00000000		5.97599969
PRIMECORD
   28 1
Si		2.22449705		0.95590174		1.49399992		-0.00055814		 0.00030894		-0.00000000
Si		2.99610169		9.22409765		4.48199977		 0.00055814		-0.00030894		-0.00000000
Si		4.83479798		4.13409795		4.48199977		-0.00055814		-0.00030894		0.00000000
Si		0.38580180		6.04590195		1.49399992		 0.00055814		 0.00030894		0.00000000
Mg		0.00000000		0.00000000		0.00000000		0.00000000		0.00000000		0.00000000
Mg		2.61029989		5.08999969		0.00000000		0.00000000		0.00000000		0.00000000
Mg		0.00000000		0.00000000		2.98799984		0.00000000		0.00000000		0.00000000
Mg		2.61029989		5.08999969		2.98799984		0.00000000		0.00000000		0.00000000
Mg		5.17570263		2.82189602		1.49399992		 0.00056033		 0.00042520		-0.00000000
Mg		0.04489716		7.35810389		4.48199977		-0.00056033		-0.00042520		-0.00000000
Mg		2.56540273		2.26810367		4.48199977		 0.00056033		-0.00042520		0.00000000
Mg		2.65519705		7.91189571		1.49399992		-0.00056033		 0.00042520		0.00000000
O		3.99950097		0.93554192		1.49399992		-0.00000838		-0.00022567		0.00000000
O		1.22109777		9.24445746		4.48199977		 0.00000838		 0.00022567		0.00000000
O		1.38920212		4.15445777		4.48199977		-0.00000838		 0.00022567		0.00000000
O		3.83139766		6.02554162		1.49399992		 0.00000838		-0.00022567		0.00000000
O		1.14957607		4.54944156		1.49399992		-0.00063714		-0.00038349		-0.00000000
O		4.07102371		5.63055782		4.48199977		 0.00063714		 0.00038349		-0.00000000
O		3.75987596		0.54055813		4.48199977		-0.00063714		 0.00038349		0.00000000
O		1.46072382		9.63944178		1.49399992		 0.00063714		-0.00038349		0.00000000
O		1.44976108		1.65730394		0.19900091		 0.00008486		 0.00060159		-0.00031350
O		3.77083870		8.52269545		5.77699878		-0.00008486		-0.00060159		 0.00031350
O		4.06005993		3.43269575		5.77699878		 0.00008486		-0.00060159		 0.00031350
O		1.16053881		6.74730363		0.19900091		-0.00008486		 0.00060159		-0.00031350
O		3.77083870		8.52269545		3.18700076		-0.00008486		-0.00060159		-0.00031350
O		1.44976108		1.65730394		2.78899893		 0.00008486		 0.00060159		 0.00031350
O		1.16053881		6.74730363		2.78899893		-0.00008486		 0.00060159		 0.00031350
O		4.06005993		3.43269575		3.18700076		 0.00008486		-0.00060159		-0.00031350
