# total energy = -20637.7704782 eV

CRYSTAL
PRIMVEC
		4.50869981		0.00000000		0.00000000
		0.00000000		10.17999943		0.00000000
		0.00000000		0.00000000		5.97599755
PRIMECORD
   28 1
Si		1.92115699		0.95590207		1.49400006		-0.00030418		 0.00051573		0.00000000
Si		2.58754282		9.22409781		4.48199974		 0.00030418		-0.00051573		0.00000000
Si		4.17550690		4.13409764		4.48199974		-0.00030418		-0.00051573		0.00000000
Si		0.33319292		6.04590179		1.49400006		 0.00030418		 0.00051573		0.00000000
Mg		0.00000000		0.00000000		0.00000000		0.00000000		0.00000000		0.00000000
Mg		2.25434991		5.08999972		0.00000000		0.00000000		0.00000000		0.00000000
Mg		0.00000000		0.00000000		2.98799968		0.00000000		0.00000000		0.00000000
Mg		2.25434991		5.08999972		2.98799968		0.00000000		0.00000000		0.00000000
Mg		4.46992499		2.82189602		1.49400006		-0.00016233		 0.00080161		-0.00000000
Mg		0.03877482		7.35810386		4.48199974		 0.00016233		-0.00080161		0.00000000
Mg		2.21557509		2.26810370		4.48199974		-0.00016233		-0.00080161		0.00000000
Mg		2.29312472		7.91189574		1.49400006		 0.00016233		 0.00080161		0.00000000
O		3.45411493		0.93554214		1.49400006		-0.00093157		-0.00007628		0.00000000
O		1.05458489		9.24445775		4.48199974		 0.00093157		 0.00007628		0.00000000
O		1.19976502		4.15445803		4.48199974		-0.00093157		 0.00007628		0.00000000
O		3.30893479		6.02554185		1.49400006		 0.00093157		-0.00007628		0.00000000
O		0.99281615		4.54944178		1.49400006		-0.00035468		-0.00020948		0.00000000
O		3.51588366		5.63055766		4.48199974		 0.00035468		 0.00020948		0.00000000
O		3.24716606		0.54055794		4.48199974		-0.00035468		 0.00020948		0.00000000
O		1.26153376		9.63944149		1.49400006		 0.00035468		-0.00020948		0.00000000
O		1.25206594		1.65730382		0.19900093		 0.00004906		 0.00034689		-0.00037300
O		3.25663387		8.52269561		5.77699887		-0.00004906		-0.00034689		 0.00037300
O		3.50641584		3.43269590		5.77699887		 0.00004906		-0.00034689		 0.00037300
O		1.00228397		6.74730354		0.19900093		-0.00004906		 0.00034689		-0.00037300
O		3.25663387		8.52269561		3.18700106		-0.00004906		-0.00034689		-0.00037300
O		1.25206594		1.65730382		2.78899874		 0.00004906		 0.00034689		 0.00037300
O		1.00228397		6.74730354		2.78899874		-0.00004906		 0.00034689		 0.00037300
O		3.50641584		3.43269590		3.18700106		 0.00004906		-0.00034689		-0.00037300
