# total energy = -20638.8348673 eV

CRYSTAL
PRIMVEC
		4.86464980		0.00000000		0.00000000
		0.00000000		10.17999967		0.00000000
		0.00000000		0.00000000		5.97599850
PRIMECORD
   28 1
Si		2.07282679		0.95590174		1.49400011		-0.00006175		-0.00016948		0.00000000
Si		2.79182203		9.22409744		4.48199985		 0.00006175		 0.00016948		0.00000000
Si		4.50515169		4.13409761		4.48199985		-0.00006175		 0.00016948		-0.00000000
Si		0.35949811		6.04590157		1.49400011		 0.00006175		-0.00016948		0.00000000
Mg		0.00000000		0.00000000		0.00000000		0.00000000		0.00000000		0.00000000
Mg		2.43232490		5.08999984		0.00000000		0.00000000		-0.00000000		0.00000000
Mg		0.00000000		0.00000000		2.98799974		-0.00000000		0.00000000		-0.00000000
Mg		2.43232490		5.08999984		2.98799974		0.00000000		0.00000000		0.00000000
Mg		4.82281381		2.82189578		1.49400011		-0.00020462		 0.00050056		0.00000000
Mg		0.04183599		7.35810389		4.48199985		 0.00020462		-0.00050056		0.00000000
Mg		2.39048891		2.26810405		4.48199985		-0.00020462		-0.00050056		0.00000000
Mg		2.47416089		7.91189562		1.49400011		 0.00020462		 0.00050056		0.00000000
O		3.72680772		0.93554172		1.49400011		 0.00046190		-0.00050680		0.00000000
O		1.13784207		9.24445746		4.48199985		-0.00046190		 0.00050680		0.00000000
O		1.29448282		4.15445763		4.48199985		 0.00046190		 0.00050680		0.00000000
O		3.57016697		6.02554156		1.49400011		-0.00046190		-0.00050680		0.00000000
O		1.07119589		4.54944190		1.49400011		 0.00025583		-0.00014896		-0.00000000
O		3.79345391		5.63055778		4.48199985		-0.00025583		 0.00014896		-0.00000000
O		3.50352078		0.54055794		4.48199985		 0.00025583		 0.00014896		0.00000000
O		1.36112901		9.63944173		1.49400011		-0.00025583		-0.00014896		0.00000000
O		1.35091276		1.65730397		0.19900115		-0.00056778		-0.00021913		 0.00028345
O		3.51373704		8.52269570		5.77699881		 0.00056778		 0.00021913		-0.00028345
O		3.78323766		3.43269586		5.77699881		-0.00056778		 0.00021913		-0.00028345
O		1.08141214		6.74730381		0.19900115		 0.00056778		-0.00021913		 0.00028345
O		3.51373704		8.52269570		3.18700089		 0.00056778		 0.00021913		 0.00028345
O		1.35091276		1.65730397		2.78899908		-0.00056778		-0.00021913		-0.00028345
O		1.08141214		6.74730381		2.78899908		 0.00056778		-0.00021913		-0.00028345
O		3.78323766		3.43269586		3.18700089		-0.00056778		 0.00021913		 0.00028345
