# total energy = -66815.1293641 eV

CRYSTAL
PRIMVEC
		18.80198342		0.00000000		0.00000000
		0.00000000		6.73129809		0.00000000
		0.00000000		0.00000000		10.88439300
PRIMECORD
   112 1
Ca		14.52622437		6.72409693		2.52060894		 0.00007447		 0.00020870		 0.00003144
Ca		4.27575905		0.00720304		8.36379158		-0.00007447		-0.00020870		-0.00003144
Ca		4.27575905		0.00720304		2.52060894		-0.00007447		-0.00020870		 0.00003144
Ca		14.52622437		6.72409693		8.36379158		 0.00007447		 0.00020870		-0.00003144
Ca		13.67675076		3.35844600		2.92159132		-0.00007447		 0.00020870		-0.00003144
Ca		5.12523266		3.37285208		7.96280920		 0.00007447		-0.00020870		 0.00003144
Ca		5.12523266		3.37285208		2.92159132		 0.00007447		-0.00020870		-0.00003144
Ca		13.67675076		3.35844600		7.96280920		-0.00007447		 0.00020870		 0.00003144
Ca		7.74434895		1.06469051		8.14849759		 0.00030529		 0.00061241		-0.00019125
Ca		11.05763447		5.66660945		2.73590293		-0.00030529		-0.00061241		 0.00019125
Ca		11.05763447		5.66660945		8.14849759		-0.00030529		-0.00061241		-0.00019125
Ca		7.74434895		1.06469051		2.73590293		 0.00030529		 0.00061241		 0.00019125
Ca		1.65664276		4.43033956		8.17810319		-0.00030529		 0.00061241		 0.00019125
Ca		17.14534066		2.30096041		2.70629733		 0.00030529		-0.00061241		-0.00019125
Ca		17.14534066		2.30096041		8.17810319		 0.00030529		-0.00061241		 0.00019125
Ca		1.65664276		4.43033956		2.70629733		-0.00030529		 0.00061241		-0.00019125
Ca		6.25673602		5.40388746		0.00000000		 0.00008493		 0.00060531		0.00000000
Ca		12.54524740		1.32741251		0.00000000		-0.00008493		-0.00060531		0.00000000
Ca		3.14425569		2.03823841		5.44220026		-0.00008493		 0.00060531		-0.00000000
Ca		15.65772773		4.69306155		5.44220026		 0.00008493		-0.00060531		-0.00000000
Ca		12.65899940		1.15643667		5.44220026		-0.00058402		-0.00023596		-0.00000000
Ca		6.14298402		5.57486141		5.44220026		 0.00058402		 0.00023596		0.00000000
Ca		15.54397573		4.52208760		0.00000000		 0.00058402		-0.00023596		0.00000000
Ca		3.25800769		2.20921237		0.00000000		-0.00058402		 0.00023596		0.00000000
Ca		9.40099171		3.36564904		0.00000000		0.00000000		0.00000000		0.00000000
Ca		0.00000000		0.00000000		5.44220026		0.00000000		0.00000000		0.00000000
Ca		9.40099171		3.36564904		5.44220026		0.00000000		0.00000000		0.00000000
Ca		0.00000000		0.00000000		0.00000000		0.00000000		0.00000000		0.00000000
Si		7.88141541		4.84249596		8.18267395		-0.00050464		-0.00007766		 0.00016171
Si		10.92056801		1.88880213		2.70172657		 0.00050464		 0.00007766		-0.00016171
Si		10.92056801		1.88880213		8.18267395		 0.00050464		 0.00007766		 0.00016171
Si		7.88141541		4.84249596		2.70172657		-0.00050464		-0.00007766		-0.00016171
Si		1.51957630		1.47684691		8.14392494		 0.00050464		-0.00007766		-0.00016171
Si		17.28240712		5.25445305		2.74047369		-0.00050464		 0.00007766		 0.00016171
Si		17.28240712		5.25445305		8.14392494		-0.00050464		 0.00007766		-0.00016171
Si		1.51957630		1.47684691		2.74047369		 0.00050464		-0.00007766		 0.00016171
Si		12.48132066		4.95087059		5.44220026		 0.00037462		-0.00018732		-0.00000000
Si		6.32066277		1.78042938		5.44220026		-0.00037462		 0.00018732		-0.00000000
Si		15.72165448		1.58522155		0.00000000		-0.00037462		-0.00018732		0.00000000
Si		3.08032894		5.14607842		0.00000000		 0.00037462		 0.00018732		0.00000000
Si		6.35845475		1.90361245		0.00000000		 0.00002249		-0.00014869		0.00000000
Si		12.44352867		4.82768939		0.00000000		-0.00002249		 0.00014869		0.00000000
Si		3.04253696		5.26926149		5.44220026		-0.00002249		-0.00014869		0.00000000
Si		15.75944646		1.46203847		5.44220026		 0.00002249		 0.00014869		0.00000000
Mg		9.40099171		0.00000000		5.44220026		0.00000000		0.00000000		0.00000000
Mg		0.00000000		3.36564904		0.00000000		0.00000000		0.00000000		0.00000000
Mg		9.40099171		0.00000000		0.00000000		0.00000000		0.00000000		0.00000000
Mg		0.00000000		3.36564904		5.44220026		0.00000000		0.00000000		0.00000000
O		5.42813261		1.72994417		1.32789760		 0.00000563		 0.00005681		 0.00047703
O		13.37385081		5.00135579		9.55650292		-0.00000563		-0.00005681		-0.00047703
O		13.37385081		5.00135579		1.32789760		-0.00000563		-0.00005681		 0.00047703
O		5.42813261		1.72994417		9.55650292		 0.00000563		 0.00005681		-0.00047703
O		3.97285910		5.09559321		4.11430454		-0.00000563		 0.00005681		-0.00047703
O		14.82912433		1.63570675		6.77009598		 0.00000563		-0.00005681		 0.00047703
O		14.82912433		1.63570675		4.11430454		 0.00000563		-0.00005681		-0.00047703
O		3.97285910		5.09559321		6.77009598		-0.00000563		 0.00005681		 0.00047703
O		13.10122205		5.70410437		4.13933750		 0.00092775		 0.00002074		 0.00034923
O		5.70076137		1.02719560		6.74506302		-0.00092775		-0.00002074		-0.00034923
O		5.70076137		1.02719560		4.13933750		-0.00092775		-0.00002074		 0.00034923
O		13.10122205		5.70410437		6.74506302		 0.00092775		 0.00002074		-0.00034923
O		15.10175308		2.33845344		1.30286276		-0.00092775		 0.00002074		-0.00034923
O		3.70023034		4.39284652		9.58153588		 0.00092775		-0.00002074		 0.00034923
O		3.70023034		4.39284652		1.30286276		 0.00092775		-0.00002074		-0.00034923
O		15.10175308		2.33845344		9.58153588		-0.00092775		 0.00002074		 0.00034923
O		8.94410351		5.25647239		9.36711430		 0.00002590		-0.00020401		 0.00043949
O		9.85787991		1.47482758		1.51728434		-0.00002590		 0.00020401		-0.00043949
O		9.85787991		1.47482758		9.36711430		-0.00002590		 0.00020401		 0.00043949
O		8.94410351		5.25647239		1.51728434		 0.00002590		-0.00020401		-0.00043949
O		0.45688820		1.89082146		6.95948648		-0.00002590		-0.00020401		-0.00043949
O		18.34509523		4.84047850		3.92491404		 0.00002590		 0.00020401		 0.00043949
O		18.34509523		4.84047850		6.95948648		 0.00002590		 0.00020401		-0.00043949
O		0.45688820		1.89082146		3.92491404		-0.00002590		-0.00020401		 0.00043949
O		6.37255624		5.45302644		8.55731475		-0.00074806		 0.00035415		 0.00063370
O		12.42942718		1.27827353		2.32708576		 0.00074806		-0.00035415		-0.00063370
O		12.42942718		1.27827353		8.55731475		 0.00074806		-0.00035415		 0.00063370
O		6.37255624		5.45302644		2.32708576		-0.00074806		 0.00035415		-0.00063370
O		3.02843547		2.08737552		7.76928414		 0.00074806		 0.00035415		-0.00063370
O		15.77354795		4.64392445		3.11511449		-0.00074806		-0.00035415		 0.00063370
O		15.77354795		4.64392445		7.76928414		-0.00074806		-0.00035415		-0.00063370
O		3.02843547		2.08737552		3.11511449		 0.00074806		 0.00035415		 0.00063370
O		7.06954577		3.33805149		0.00000000		-0.00020391		-0.00018972		-0.00000000
O		11.73243766		3.39324847		0.00000000		 0.00020391		 0.00018972		0.00000000
O		2.33144594		6.70370241		5.44220026		 0.00020391		-0.00018972		0.00000000
O		16.47053748		0.02759755		5.44220026		-0.00020391		 0.00018972		0.00000000
O		7.73701618		3.29497051		7.82697239		 0.00051963		 0.00033803		-0.00036804
O		11.06496724		3.43632946		3.05742813		-0.00051963		-0.00033803		 0.00036804
O		11.06496724		3.43632946		7.82697239		-0.00051963		-0.00033803		-0.00036804
O		7.73701618		3.29497051		3.05742813		 0.00051963		 0.00033803		 0.00036804
O		1.66397553		6.66062143		8.49962839		-0.00051963		 0.00033803		 0.00036804
O		17.13800789		0.07067854		2.38477213		 0.00051963		-0.00033803		-0.00036804
O		17.13800789		0.07067854		8.49962839		 0.00051963		-0.00033803		 0.00036804
O		1.66397553		6.66062143		2.38477213		-0.00051963		 0.00033803		-0.00036804
O		7.47942901		0.70342168		0.00000000		 0.00008312		-0.00087330		-0.00000000
O		11.32255442		6.02787828		0.00000000		-0.00008312		 0.00087330		-0.00000000
O		1.92156271		4.06907073		5.44220026		-0.00008312		-0.00087330		0.00000000
O		16.88042072		2.66222924		5.44220026		 0.00008312		 0.00087330		0.00000000
O		10.83746324		5.19521740		5.44220026		-0.00093986		-0.00079781		0.00000000
O		7.96452018		1.53608256		5.44220026		 0.00093986		 0.00079781		0.00000000
O		17.36551189		1.82956648		0.00000000		 0.00093986		-0.00079781		-0.00000000
O		1.43647153		4.90173348		0.00000000		-0.00093986		 0.00079781		-0.00000000
O		13.05985769		3.45046479		5.44220026		 0.00016817		 0.00026972		0.00000000
O		5.74212574		3.28083518		5.44220026		-0.00016817		-0.00026972		0.00000000
O		15.14311745		0.08481387		0.00000000		-0.00016817		 0.00026972		0.00000000
O		3.65886597		6.64648422		0.00000000		 0.00016817		-0.00026972		0.00000000
O		8.35372123		5.66102338		6.85281718		 0.00008461		 0.00005859		-0.00019009
O		10.44826219		1.07027658		4.03158145		-0.00008461		-0.00005859		 0.00019009
O		10.44826219		1.07027658		6.85281718		-0.00008461		-0.00005859		-0.00019009
O		8.35372123		5.66102338		4.03158145		 0.00008461		 0.00005859		 0.00019009
O		1.04727048		2.29537246		9.47378171		-0.00008461		 0.00005859		 0.00019009
O		17.75471295		4.43592563		1.41061881		 0.00008461		-0.00005859		-0.00019009
O		17.75471295		4.43592563		9.47378171		 0.00008461		-0.00005859		 0.00019009
O		1.04727048		2.29537246		1.41061881		-0.00008461		 0.00005859		-0.00019009
