# total energy = -66814.040177 eV

CRYSTAL
PRIMVEC
		19.26056838		0.00000000		0.00000000
		0.00000000		6.73129900		0.00000000
		0.00000000		0.00000000		10.88439758
PRIMECORD
   112 1
Ca		14.88052253		6.72409748		2.52060940		-0.00016137		 0.00009045		 0.00015632
Ca		4.38004586		0.00720345		8.36379011		 0.00016137		-0.00009045		-0.00015632
Ca		4.38004586		0.00720345		2.52060940		 0.00016137		-0.00009045		 0.00015632
Ca		14.88052253		6.72409748		8.36379011		-0.00016137		 0.00009045		-0.00015632
Ca		14.01033005		3.35844605		2.92159132		 0.00016137		 0.00009045		-0.00015632
Ca		5.25023834		3.37285295		7.96281011		-0.00016137		-0.00009045		 0.00015632
Ca		5.25023834		3.37285295		2.92159132		-0.00016137		-0.00009045		-0.00015632
Ca		14.01033005		3.35844605		7.96281011		 0.00016137		 0.00009045		 0.00015632
Ca		7.93323551		1.06468955		8.14849740		 0.00015500		-0.00032102		-0.00055680
Ca		11.32733287		5.66660945		2.73590211		-0.00015500		 0.00032102		 0.00055680
Ca		11.32733287		5.66660945		8.14849740		-0.00015500		 0.00032102		-0.00055680
Ca		7.93323551		1.06468955		2.73590211		 0.00015500		-0.00032102		 0.00055680
Ca		1.69704868		4.43033905		8.17810282		-0.00015500		-0.00032102		 0.00055680
Ca		17.56351970		2.30095995		2.70629669		 0.00015500		 0.00032102		-0.00055680
Ca		17.56351970		2.30095995		8.17810282		 0.00015500		 0.00032102		 0.00055680
Ca		1.69704868		4.43033905		2.70629669		-0.00015500		-0.00032102		-0.00055680
Ca		6.40933934		5.40388759		0.00000000		 0.00057091		-0.00044351		-0.00000000
Ca		12.85122904		1.32741141		0.00000000		-0.00057091		 0.00044351		-0.00000000
Ca		3.22094485		2.03823809		5.44220072		-0.00057091		-0.00044351		0.00000000
Ca		16.03962353		4.69306091		5.44220072		 0.00057091		 0.00044351		0.00000000
Ca		12.96775548		1.15643727		5.44220072		 0.00022646		-0.00032464		0.00000000
Ca		6.29281290		5.57486173		5.44220072		-0.00022646		 0.00032464		0.00000000
Ca		15.92309709		4.52208677		0.00000000		-0.00022646		-0.00032464		0.00000000
Ca		3.33747129		2.20921223		0.00000000		 0.00022646		 0.00032464		0.00000000
Ca		9.63028419		3.36564950		0.00000000		0.00000000		0.00000000		0.00000000
Ca		0.00000000		0.00000000		5.44220072		0.00000000		0.00000000		0.00000000
Ca		9.63028419		3.36564950		5.44220072		0.00000000		0.00000000		-0.00000000
Ca		0.00000000		0.00000000		0.00000000		0.00000000		0.00000000		0.00000000
Si		8.07364506		4.84249596		8.18267335		 0.00049739		 0.00008238		-0.00011596
Si		11.18692333		1.88880305		2.70172615		-0.00049739		-0.00008238		 0.00011596
Si		11.18692333		1.88880305		8.18267335		-0.00049739		-0.00008238		-0.00011596
Si		8.07364506		4.84249596		2.70172615		 0.00049739		 0.00008238		 0.00011596
Si		1.55663914		1.47684645		8.14392494		-0.00049739		 0.00008238		 0.00011596
Si		17.70392925		5.25445255		2.74047456		 0.00049739		-0.00008238		-0.00011596
Si		17.70392925		5.25445255		8.14392494		 0.00049739		-0.00008238		 0.00011596
Si		1.55663914		1.47684645		2.74047456		-0.00049739		 0.00008238		-0.00011596
Si		12.78574311		4.95087132		5.44220072		 0.00039672		 0.00016580		0.00000000
Si		6.47482527		1.78042961		5.44220072		-0.00039672		-0.00016580		0.00000000
Si		16.10510947		1.58522182		0.00000000		-0.00039672		 0.00016580		0.00000000
Si		3.15545892		5.14607911		0.00000000		 0.00039672		-0.00016580		0.00000000
Si		6.51353902		1.90361250		0.00000000		-0.00000001		-0.00033819		0.00000000
Si		12.74702937		4.82768843		0.00000000		 0.00000001		 0.00033819		0.00000000
Si		3.11674518		5.26926007		5.44220072		 0.00000001		-0.00033819		0.00000000
Si		16.14382321		1.46203700		5.44220072		-0.00000001		 0.00033819		0.00000000
Mg		9.63028419		0.00000000		5.44220072		0.00000000		0.00000000		0.00000000
Mg		0.00000000		3.36564950		0.00000000		0.00000000		0.00000000		0.00000000
Mg		9.63028419		0.00000000		0.00000000		0.00000000		0.00000000		0.00000000
Mg		0.00000000		3.36564950		5.44220072		0.00000000		0.00000000		0.00000000
O		5.56052609		1.72994381		1.32789677		 0.00002432		-0.00057965		-0.00031620
O		13.70004229		5.00135520		9.55650273		-0.00002432		 0.00057965		 0.00031620
O		13.70004229		5.00135520		1.32789677		-0.00002432		 0.00057965		-0.00031620
O		5.56052609		1.72994381		9.55650273		 0.00002432		-0.00057965		 0.00031620
O		4.06975810		5.09559331		4.11430394		-0.00002432		-0.00057965		 0.00031620
O		15.19081028		1.63570570		6.77009749		 0.00002432		 0.00057965		-0.00031620
O		15.19081028		1.63570570		4.11430394		 0.00002432		 0.00057965		 0.00031620
O		4.06975810		5.09559331		6.77009749		-0.00002432		-0.00057965		-0.00031620
O		13.42076405		5.70410400		4.13933690		-0.00028618		-0.00031378		-0.00046416
O		5.83980433		1.02719693		6.74506260		 0.00028618		 0.00031378		 0.00046416
O		5.83980433		1.02719693		4.13933690		 0.00028618		 0.00031378		-0.00046416
O		13.42076405		5.70410400		6.74506260		-0.00028618		-0.00031378		 0.00046416
O		15.47008853		2.33845450		1.30286381		 0.00028618		-0.00031378		 0.00046416
O		3.79047986		4.39284643		9.58153762		-0.00028618		 0.00031378		-0.00046416
O		3.79047986		4.39284643		1.30286381		-0.00028618		 0.00031378		 0.00046416
O		15.47008853		2.33845450		9.58153762		 0.00028618		-0.00031378		-0.00046416
O		9.16225238		5.25647106		9.36711549		 0.00016396		-0.00019484		-0.00011340
O		10.09831600		1.47482795		1.51728402		-0.00016396		 0.00019484		 0.00011340
O		10.09831600		1.47482795		9.36711549		-0.00016396		 0.00019484		-0.00011340
O		9.16225238		5.25647106		1.51728402		 0.00016396		-0.00019484		 0.00011340
O		0.46803181		1.89082155		6.95948666		-0.00016396		-0.00019484		 0.00011340
O		18.79253657		4.84047745		3.92491477		 0.00016396		 0.00019484		-0.00011340
O		18.79253657		4.84047745		6.95948666		 0.00016396		 0.00019484		 0.00011340
O		0.46803181		1.89082155		3.92491477		-0.00016396		-0.00019484		-0.00011340
O		6.52798444		5.45302516		8.55731452		 0.00012317		-0.00057179		-0.00025902
O		12.73258394		1.27827385		2.32708498		-0.00012317		 0.00057179		 0.00025902
O		12.73258394		1.27827385		8.55731452		-0.00012317		 0.00057179		-0.00025902
O		6.52798444		5.45302516		2.32708498		 0.00012317		-0.00057179		 0.00025902
O		3.10229975		2.08737565		7.76928570		-0.00012317		-0.00057179		 0.00025902
O		16.15826863		4.64392335		3.11511573		 0.00012317		 0.00057179		-0.00025902
O		16.15826863		4.64392335		7.76928570		 0.00012317		 0.00057179		 0.00025902
O		3.10229975		2.08737565		3.11511573		-0.00012317		-0.00057179		-0.00025902
O		7.24197371		3.33805103		0.00000000		 0.00000782		-0.00023042		0.00000000
O		12.01859467		3.39324797		0.00000000		-0.00000782		 0.00023042		-0.00000000
O		2.38831048		6.70370246		5.44220072		-0.00000782		-0.00023042		-0.00000000
O		16.87225790		0.02759847		5.44220072		 0.00000782		 0.00023042		-0.00000000
O		7.92572389		3.29497092		7.82697110		-0.00047905		-0.00001035		 0.00023212
O		11.33484449		3.43632808		3.05742840		 0.00047905		 0.00001035		-0.00023212
O		11.33484449		3.43632808		7.82697110		 0.00047905		 0.00001035		 0.00023212
O		7.92572389		3.29497092		3.05742840		-0.00047905		-0.00001035		-0.00023212
O		1.70456030		6.66062042		8.49962719		 0.00047905		-0.00001035		-0.00023212
O		17.55600808		0.07067858		2.38477231		-0.00047905		 0.00001035		 0.00023212
O		17.55600808		0.07067858		8.49962719		-0.00047905		 0.00001035		-0.00023212
O		1.70456030		6.66062042		2.38477231		 0.00047905		-0.00001035		 0.00023212
O		7.66185410		0.70342100		0.00000000		 0.00047558		 0.00052086		-0.00000000
O		11.59871428		6.02787801		0.00000000		-0.00047558		-0.00052086		0.00000000
O		1.96843009		4.06907050		5.44220072		-0.00047558		 0.00052086		-0.00000000
O		17.29213830		2.66222850		5.44220072		 0.00047558		-0.00052086		0.00000000
O		11.10179162		5.19521667		5.44220072		 0.00035944		 0.00068931		-0.00000000
O		8.15877677		1.53608233		5.44220072		-0.00035944		-0.00068931		-0.00000000
O		17.78906096		1.82956717		0.00000000		-0.00035944		 0.00068931		0.00000000
O		1.47150742		4.90173376		0.00000000		 0.00035944		-0.00068931		0.00000000
O		13.37839080		3.45046341		5.44220072		 0.00003206		-0.00038698		-0.00000000
O		5.88217758		3.28083559		5.44220072		-0.00003206		 0.00038698		-0.00000000
O		15.51246178		0.08481391		0.00000000		-0.00003206		-0.00038698		-0.00000000
O		3.74810661		6.64648509		0.00000000		 0.00003206		 0.00038698		-0.00000000
O		8.55747053		5.66102196		6.85281778		 0.00018095		 0.00030340		 0.00008574
O		10.70309785		1.07027704		4.03158173		-0.00018095		-0.00030340		-0.00008574
O		10.70309785		1.07027704		6.85281778		-0.00018095		-0.00030340		 0.00008574
O		8.55747053		5.66102196		4.03158173		 0.00018095		 0.00030340		-0.00008574
O		1.07281366		2.29537246		9.47378244		-0.00018095		 0.00030340		-0.00008574
O		18.18775472		4.43592654		1.41061706		 0.00018095		-0.00030340		 0.00008574
O		18.18775472		4.43592654		9.47378244		 0.00018095		-0.00030340		-0.00008574
O		1.07281366		2.29537246		1.41061706		-0.00018095		 0.00030340		 0.00008574
