# total energy = -66812.4431865 eV

CRYSTAL
PRIMVEC
		19.71915335		0.00000000		0.00000000
		0.00000000		6.73129075		0.00000000
		0.00000000		0.00000000		10.88440079
PRIMECORD
   112 1
Ca		15.23482068		6.72409720		2.52060866		 0.00054768		 0.00031734		-0.00007672
Ca		4.48433266		0.00720341		8.36379016		-0.00054768		-0.00031734		 0.00007672
Ca		4.48433266		0.00720341		2.52060866		-0.00054768		-0.00031734		-0.00007672
Ca		15.23482068		6.72409720		8.36379016		 0.00054768		 0.00031734		 0.00007672
Ca		14.34390933		3.35844591		2.92159173		-0.00054768		 0.00031734		 0.00007672
Ca		5.37524401		3.37285272		7.96280906		 0.00054768		-0.00031734		-0.00007672
Ca		5.37524401		3.37285272		2.92159173		 0.00054768		-0.00031734		 0.00007672
Ca		14.34390933		3.35844591		7.96280906		-0.00054768		 0.00031734		-0.00007672
Ca		8.12212207		1.06469033		8.14849644		-0.00004085		 0.00006220		 0.00039223
Ca		11.59703127		5.66661028		2.73590238		 0.00004085		-0.00006220		-0.00039223
Ca		11.59703127		5.66661028		8.14849644		 0.00004085		-0.00006220		 0.00039223
Ca		8.12212207		1.06469033		2.73590238		-0.00004085		 0.00006220		-0.00039223
Ca		1.73745460		4.43033965		8.17810278		 0.00004085		 0.00006220		-0.00039223
Ca		17.98169874		2.30095899		2.70629604		-0.00004085		-0.00006220		 0.00039223
Ca		17.98169874		2.30095899		8.17810278		-0.00004085		-0.00006220		-0.00039223
Ca		1.73745460		4.43033965		2.70629604		 0.00004085		 0.00006220		 0.00039223
Ca		6.56194266		5.40388805		0.00000000		-0.00010788		-0.00017405		0.00000000
Ca		13.15721069		1.32741255		0.00000000		 0.00010788		 0.00017405		0.00000000
Ca		3.29763401		2.03823873		5.44220040		 0.00010788		-0.00017405		-0.00000000
Ca		16.42151933		4.69306187		5.44220040		-0.00010788		 0.00017405		-0.00000000
Ca		13.27651156		1.15643764		5.44220040		 0.00009861		 0.00094165		-0.00000000
Ca		6.44264178		5.57486100		5.44220040		-0.00009861		-0.00094165		-0.00000000
Ca		16.30221845		4.52208695		0.00000000		-0.00009861		 0.00094165		-0.00000000
Ca		3.41693489		2.20921365		0.00000000		 0.00009861		-0.00094165		-0.00000000
Ca		9.85957667		3.36564932		0.00000000		0.00000000		0.00000000		0.00000000
Ca		0.00000000		0.00000000		5.44220040		0.00000000		0.00000000		0.00000000
Ca		9.85957667		3.36564932		5.44220040		0.00000000		0.00000000		0.00000000
Ca		0.00000000		0.00000000		0.00000000		0.00000000		0.00000000		0.00000000
Si		8.26587470		4.84249756		8.18267368		-0.00033074		-0.00040884		-0.00017946
Si		11.45327667		1.88880305		2.70172514		 0.00033074		 0.00040884		 0.00017946
Si		11.45327667		1.88880305		8.18267368		 0.00033074		 0.00040884		-0.00017946
Si		8.26587470		4.84249756		2.70172514		-0.00033074		-0.00040884		 0.00017946
Si		1.59370197		1.47684627		8.14392554		 0.00033074		-0.00040884		 0.00017946
Si		18.12545334		5.25445236		2.74047328		-0.00033074		 0.00040884		-0.00017946
Si		18.12545334		5.25445236		8.14392554		-0.00033074		 0.00040884		 0.00017946
Si		1.59370197		1.47684627		2.74047328		 0.00033074		-0.00040884		-0.00017946
Si		13.09016557		4.95087008		5.44220040		-0.00035480		 0.00030580		0.00000000
Si		6.62898778		1.78042855		5.44220040		 0.00035480		-0.00030580		0.00000000
Si		16.48856445		1.58522077		0.00000000		 0.00035480		 0.00030580		0.00000000
Si		3.23058889		5.14607787		0.00000000		-0.00035480		-0.00030580		0.00000000
Si		6.66862328		1.90361213		0.00000000		 0.00018403		-0.00019491		0.00000000
Si		13.05053007		4.82768848		0.00000000		-0.00018403		 0.00019491		0.00000000
Si		3.19095339		5.26926145		5.44220040		-0.00018403		-0.00019491		0.00000000
Si		16.52819995		1.46203719		5.44220040		 0.00018403		 0.00019491		0.00000000
Mg		9.85957667		0.00000000		5.44220040		0.00000000		0.00000000		0.00000000
Mg		0.00000000		3.36564932		0.00000000		0.00000000		0.00000000		0.00000000
Mg		9.85957667		0.00000000		0.00000000		0.00000000		0.00000000		0.00000000
Mg		0.00000000		3.36564932		5.44220040		0.00000000		0.00000000		0.00000000
O		5.69291957		1.72994358		1.32789765		 0.00048303		-0.00020453		 0.00019172
O		14.02623377		5.00135506		9.55650315		-0.00048303		 0.00020453		-0.00019172
O		14.02623377		5.00135506		1.32789765		-0.00048303		 0.00020453		 0.00019172
O		5.69291957		1.72994358		9.55650315		 0.00048303		-0.00020453		-0.00019172
O		4.16665710		5.09559289		4.11430472		-0.00048303		-0.00020453		-0.00019172
O		15.55249624		1.63570574		6.77009607		 0.00048303		 0.00020453		 0.00019172
O		15.55249624		1.63570574		4.11430472		 0.00048303		 0.00020453		-0.00019172
O		4.16665710		5.09559289		6.77009607		-0.00048303		-0.00020453		 0.00019172
O		13.74030605		5.70410427		4.13933621		-0.00000143		 0.00050374		 0.00040254
O		5.97884729		1.02719633		6.74506260		 0.00000143		-0.00050374		-0.00040254
O		5.97884729		1.02719633		4.13933621		 0.00000143		-0.00050374		 0.00040254
O		13.74030605		5.70410427		6.74506260		-0.00000143		 0.00050374		-0.00040254
O		15.83842397		2.33845299		1.30286221		 0.00000143		 0.00050374		-0.00040254
O		3.88072938		4.39284565		9.58153661		-0.00000143		-0.00050374		 0.00040254
O		3.88072938		4.39284565		1.30286221		-0.00000143		-0.00050374		-0.00040254
O		15.83842397		2.33845299		9.58153661		 0.00000143		 0.00050374		 0.00040254
O		9.38040125		5.25647161		9.36711448		-0.00026354		 0.00015321		-0.00037283
O		10.33875210		1.47482703		1.51728434		 0.00026354		-0.00015321		 0.00037283
O		10.33875210		1.47482703		9.36711448		 0.00026354		-0.00015321		-0.00037283
O		9.38040125		5.25647161		1.51728434		-0.00026354		 0.00015321		 0.00037283
O		0.47917543		1.89082229		6.95948671		 0.00026354		 0.00015321		 0.00037283
O		19.23997792		4.84047832		3.92491409		-0.00026354		-0.00015321		-0.00037283
O		19.23997792		4.84047832		6.95948671		-0.00026354		-0.00015321		 0.00037283
O		0.47917543		1.89082229		3.92491409		 0.00026354		 0.00015321		-0.00037283
O		6.68341264		5.45302621		8.55731393		 0.00004012		 0.00018299		 0.00005326
O		13.03574070		1.27827440		2.32708489		-0.00004012		-0.00018299		-0.00005326
O		13.03574070		1.27827440		8.55731393		-0.00004012		-0.00018299		 0.00005326
O		6.68341264		5.45302621		2.32708489		 0.00004012		 0.00018299		-0.00005326
O		3.17616403		2.08737689		7.76928529		-0.00004012		 0.00018299		-0.00005326
O		16.54298932		4.64392371		3.11511550		 0.00004012		-0.00018299		 0.00005326
O		16.54298932		4.64392371		7.76928529		 0.00004012		-0.00018299		-0.00005326
O		3.17616403		2.08737689		3.11511550		-0.00004012		 0.00018299		 0.00005326
O		7.41440166		3.33805236		0.00000000		 0.00011317		-0.00021349		-0.00000000
O		12.30475169		3.39324824		0.00000000		-0.00011317		 0.00021349		-0.00000000
O		2.44517501		6.70370168		5.44220040		-0.00011317		-0.00021349		0.00000000
O		17.27397833		0.02759893		5.44220040		 0.00011317		 0.00021349		0.00000000
O		8.11443160		3.29496996		7.82697170		 0.00044573		-0.00014141		-0.00090712
O		11.60472174		3.43632868		3.05742712		-0.00044573		 0.00014141		 0.00090712
O		11.60472174		3.43632868		7.82697170		-0.00044573		 0.00014141		-0.00090712
O		8.11443160		3.29496996		3.05742712		 0.00044573		-0.00014141		 0.00090712
O		1.74514507		6.66062125		8.49962751		-0.00044573		-0.00014141		 0.00090712
O		17.97400827		0.07067936		2.38477130		 0.00044573		 0.00014141		-0.00090712
O		17.97400827		0.07067936		8.49962751		 0.00044573		 0.00014141		 0.00090712
O		1.74514507		6.66062125		2.38477130		-0.00044573		-0.00014141		-0.00090712
O		7.84427920		0.70342164		0.00000000		-0.00028705		-0.00054126		0.00000000
O		11.87487414		6.02787897		0.00000000		 0.00028705		 0.00054126		0.00000000
O		2.01529747		4.06907096		5.44220040		 0.00028705		-0.00054126		0.00000000
O		17.70385587		2.66222965		5.44220040		-0.00028705		 0.00054126		0.00000000
O		11.36611999		5.19521603		5.44220040		-0.00009884		 0.00008375		-0.00000000
O		8.35303336		1.53608261		5.44220040		 0.00009884		-0.00008375		-0.00000000
O		18.21261003		1.82956671		0.00000000		 0.00009884		 0.00008375		0.00000000
O		1.50654332		4.90173192		0.00000000		-0.00009884		-0.00008375		0.00000000
O		13.69692391		3.45046337		5.44220040		 0.00001105		 0.00037239		-0.00000000
O		6.02222943		3.28083527		5.44220040		-0.00001105		-0.00037239		-0.00000000
O		15.88180610		0.08481405		0.00000000		-0.00001105		 0.00037239		0.00000000
O		3.83734724		6.64648458		0.00000000		 0.00001105		-0.00037239		0.00000000
O		8.76121983		5.66102187		6.85281792		-0.00025964		-0.00007383		 0.00025897
O		10.95793351		1.07027677		4.03158090		 0.00025964		 0.00007383		-0.00025897
O		10.95793351		1.07027677		6.85281792		 0.00025964		 0.00007383		 0.00025897
O		8.76121983		5.66102187		4.03158090		-0.00025964		-0.00007383		-0.00025897
O		1.09835684		2.29537255		9.47378130		 0.00025964		-0.00007383		-0.00025897
O		18.62079650		4.43592608		1.41061752		-0.00025964		 0.00007383		 0.00025897
O		18.62079650		4.43592608		9.47378130		-0.00025964		 0.00007383		-0.00025897
O		1.09835684		2.29537255		1.41061752		 0.00025964		-0.00007383		 0.00025897
