# total energy = -66803.71767 eV

CRYSTAL
PRIMVEC
		16.50905861		0.00000000		0.00000000
		0.00000000		6.73130451		0.00000000
		0.00000000		0.00000000		10.88440584
PRIMECORD
   112 1
Ca		12.75473360		6.72409665		2.52060967		-0.00031519		-0.00023831		 0.00037596
Ca		3.75432502		0.00720290		8.36379121		 0.00031519		 0.00023831		-0.00037596
Ca		3.75432502		0.00720290		2.52060967		 0.00031519		 0.00023831		 0.00037596
Ca		12.75473360		6.72409665		8.36379121		-0.00031519		-0.00023831		-0.00037596
Ca		12.00885433		3.35844770		2.92159159		 0.00031519		-0.00023831		-0.00037596
Ca		4.50020429		3.37285350		7.96280929		-0.00031519		 0.00023831		 0.00037596
Ca		4.50020429		3.37285350		2.92159159		-0.00031519		 0.00023831		-0.00037596
Ca		12.00885433		3.35844770		7.96280929		 0.00031519		-0.00023831		 0.00037596
Ca		6.79991615		1.06469065		8.14849658		 0.00011593		 0.00014326		 0.00024903
Ca		9.70914246		5.66661055		2.73590266		-0.00011593		-0.00014326		-0.00024903
Ca		9.70914246		5.66661055		8.14849658		-0.00011593		-0.00014326		 0.00024903
Ca		6.79991615		1.06469065		2.73590266		 0.00011593		 0.00014326		-0.00024903
Ca		1.45461315		4.43033960		8.17810227		-0.00011593		 0.00014326		-0.00024903
Ca		15.05444546		2.30095995		2.70629696		 0.00011593		-0.00014326		 0.00024903
Ca		15.05444546		2.30095995		8.17810227		 0.00011593		-0.00014326		-0.00024903
Ca		1.45461315		4.43033960		2.70629696		-0.00011593		 0.00014326		 0.00024903
Ca		5.49371944		5.40388869		0.00000000		-0.00003673		 0.00041453		-0.00000000
Ca		11.01533918		1.32741251		0.00000000		 0.00003673		-0.00041453		-0.00000000
Ca		2.76080987		2.03823809		5.44219962		 0.00003673		 0.00041453		0.00000000
Ca		13.74824874		4.69306146		5.44219962		-0.00003673		-0.00041453		0.00000000
Ca		11.11521898		1.15643644		5.44219962		 0.00035956		 0.00036576		-0.00000000
Ca		5.39383963		5.57486146		5.44219962		-0.00035956		-0.00036576		-0.00000000
Ca		13.64836894		4.52208704		0.00000000		-0.00035956		 0.00036576		-0.00000000
Ca		2.86068968		2.20921251		0.00000000		 0.00035956		-0.00036576		-0.00000000
Ca		8.25452931		3.36565060		0.00000000		0.00000000		0.00000000		0.00000000
Ca		0.00000000		0.00000000		5.44219962		0.00000000		0.00000000		0.00000000
Ca		8.25452931		3.36565060		5.44219962		0.00000000		0.00000000		-0.00000000
Ca		0.00000000		0.00000000		0.00000000		0.00000000		0.00000000		-0.00000000
Si		6.92026719		4.84249651		8.18267363		-0.00089352		-0.00008549		-0.00000843
Si		9.58879142		1.88880305		2.70172560		 0.00089352		 0.00008549		 0.00000843
Si		9.58879142		1.88880305		8.18267363		 0.00089352		 0.00008549		-0.00000843
Si		6.92026719		4.84249651		2.70172560		-0.00089352		-0.00008549		 0.00000843
Si		1.33426212		1.47684755		8.14392522		 0.00089352		-0.00008549		 0.00000843
Si		15.17479815		5.25445365		2.74047401		-0.00089352		 0.00008549		-0.00000843
Si		15.17479815		5.25445365		8.14392522		-0.00089352		 0.00008549		 0.00000843
Si		1.33426212		1.47684755		2.74047401		 0.00089352		-0.00008549		-0.00000843
Si		10.95920838		4.95087022		5.44219962		-0.00023634		 0.00014165		0.00000000
Si		5.54985023		1.78042933		5.44219962		 0.00023634		-0.00014165		0.00000000
Si		13.80437954		1.58522127		0.00000000		 0.00023634		 0.00014165		-0.00000000
Si		2.70467907		5.14607828		0.00000000		-0.00023634		-0.00014165		-0.00000000
Si		5.58303344		1.90361167		0.00000000		-0.00055605		 0.00016037		-0.00000000
Si		10.92602517		4.82768953		0.00000000		 0.00055605		-0.00016037		-0.00000000
Si		2.67149587		5.26926062		5.44219962		 0.00055605		 0.00016037		-0.00000000
Si		13.83756275		1.46203728		5.44219962		-0.00055605		-0.00016037		-0.00000000
Mg		8.25452931		0.00000000		5.44219962		0.00000000		0.00000000		0.00000000
Mg		0.00000000		3.36565060		0.00000000		0.00000000		0.00000000		0.00000000
Mg		8.25452931		0.00000000		0.00000000		0.00000000		0.00000000		0.00000000
Mg		0.00000000		3.36565060		5.44219962		0.00000000		0.00000000		0.00000000
O		4.76616522		1.72994463		1.32789622		-0.00024667		 0.00021950		 0.00002475
O		11.74289339		5.00135657		9.55650301		 0.00024667		-0.00021950		-0.00002475
O		11.74289339		5.00135657		1.32789622		 0.00024667		-0.00021950		 0.00002475
O		4.76616522		1.72994463		9.55650301		-0.00024667		 0.00021950		-0.00002475
O		3.48836409		5.09559358		4.11430339		 0.00024667		 0.00021950		-0.00002475
O		13.02069453		1.63570597		6.77009749		-0.00024667		-0.00021950		 0.00002475
O		13.02069453		1.63570597		4.11430339		-0.00024667		-0.00021950		-0.00002475
O		3.48836409		5.09559358		6.77009749		 0.00024667		 0.00021950		 0.00002475
O		11.50351204		5.70410427		4.13933773		 0.00044756		 0.00028693		-0.00005950
O		5.00554657		1.02719528		6.74506315		-0.00044756		-0.00028693		 0.00005950
O		5.00554657		1.02719528		4.13933773		-0.00044756		-0.00028693		-0.00005950
O		11.50351204		5.70410427		6.74506315		 0.00044756		 0.00028693		 0.00005950
O		13.26007588		2.33845367		1.30286354		-0.00044756		 0.00028693		 0.00005950
O		3.24898274		4.39284588		9.58153734		 0.00044756		-0.00028693		-0.00005950
O		3.24898274		4.39284588		1.30286354		 0.00044756		-0.00028693		 0.00005950
O		13.26007588		2.33845367		9.58153734		-0.00044756		 0.00028693		-0.00005950
O		7.85335918		5.25647106		9.36711439		 0.00012372		 0.00007115		-0.00036907
O		8.65569943		1.47482850		1.51728484		-0.00012372		-0.00007115		 0.00036907
O		8.65569943		1.47482850		9.36711439		-0.00012372		-0.00007115		-0.00036907
O		7.85335918		5.25647106		1.51728484		 0.00012372		 0.00007115		 0.00036907
O		0.40117012		1.89082210		6.95948611		-0.00012372		 0.00007115		 0.00036907
O		16.10788849		4.84047745		3.92491477		 0.00012372		-0.00007115		-0.00036907
O		16.10788849		4.84047745		6.95948611		 0.00012372		-0.00007115		 0.00036907
O		0.40117012		1.89082210		3.92491477		-0.00012372		 0.00007115		-0.00036907
O		5.59541524		5.45302626		8.55731535		-0.00029688		 0.00021290		 0.00018131
O		10.91364338		1.27827330		2.32708554		 0.00029688		-0.00021290		-0.00018131
O		10.91364338		1.27827330		8.55731535		 0.00029688		-0.00021290		 0.00018131
O		5.59541524		5.45302626		2.32708554		-0.00029688		 0.00021290		-0.00018131
O		2.65911407		2.08737565		7.76928515		 0.00029688		 0.00021290		-0.00018131
O		13.84994454		4.64392390		3.11511573		-0.00029688		-0.00021290		 0.00018131
O		13.84994454		4.64392390		7.76928515		-0.00029688		-0.00021290		-0.00018131
O		2.65911407		2.08737565		3.11511573		 0.00029688		 0.00021290		 0.00018131
O		6.20740604		3.33805241		0.00000000		-0.00020593		-0.00031854		0.00000000
O		10.30165258		3.39324714		0.00000000		 0.00020593		 0.00031854		0.00000000
O		2.04712327		6.70370136		5.44219962		 0.00020593		-0.00031854		0.00000000
O		14.46193535		0.02759819		5.44219962		-0.00020593		 0.00031854		0.00000000
O		6.79347762		3.29497037		7.82697110		-0.00007924		 0.00002902		 0.00000639
O		9.71558099		3.43632918		3.05742813		 0.00007924		-0.00002902		-0.00000639
O		9.71558099		3.43632918		7.82697110		 0.00007924		-0.00002902		 0.00000639
O		6.79347762		3.29497037		3.05742813		-0.00007924		 0.00002902		-0.00000639
O		1.46105169		6.66062097		8.49962774		 0.00007924		 0.00002902		-0.00000639
O		15.04800693		0.07067858		2.38477149		-0.00007924		-0.00002902		 0.00000639
O		15.04800693		0.07067858		8.49962774		-0.00007924		-0.00002902		-0.00000639
O		1.46105169		6.66062097		2.38477149		 0.00007924		 0.00002902		 0.00000639
O		6.56730352		0.70342127		0.00000000		-0.00043724		-0.00060097		0.00000000
O		9.94175510		6.02787828		0.00000000		 0.00043724		 0.00060097		-0.00000000
O		1.68722579		4.06907022		5.44219962		 0.00043724		-0.00060097		-0.00000000
O		14.82183282		2.66222933		5.44219962		-0.00043724		 0.00060097		-0.00000000
O		9.51582139		5.19521750		5.44219962		 0.00078614		 0.00036207		0.00000000
O		6.99323723		1.53608371		5.44219962		-0.00078614		-0.00036207		0.00000000
O		15.24776654		1.82956689		0.00000000		-0.00078614		 0.00036207		-0.00000000
O		1.26129208		4.90173266		0.00000000		 0.00078614		-0.00036207		0.00000000
O		11.46719211		3.45046424		5.44219962		 0.00059851		 0.00055763		0.00000000
O		5.04186650		3.28083531		5.44219962		-0.00059851		-0.00055763		0.00000000
O		13.29639581		0.08481364		0.00000000		-0.00059851		 0.00055763		0.00000000
O		3.21266281		6.64648426		0.00000000		 0.00059851		-0.00055763		0.00000000
O		7.33497474		5.66102224		6.85281778		 0.00011340		-0.00018822		 0.00022272
O		9.17408387		1.07027732		4.03158145		-0.00011340		 0.00018822		-0.00022272
O		9.17408387		1.07027732		6.85281778		-0.00011340		 0.00018822		 0.00022272
O		7.33497474		5.66102224		4.03158145		 0.00011340		-0.00018822		-0.00022272
O		0.91955456		2.29537328		9.47378107		-0.00011340		-0.00018822		-0.00022272
O		15.58950405		4.43592627		1.41061816		 0.00011340		 0.00018822		 0.00022272
O		15.58950405		4.43592627		9.47378107		 0.00011340		 0.00018822		-0.00022272
O		0.91955456		2.29537328		1.41061816		-0.00011340		-0.00018822		 0.00022272
