# total energy = -66812.4789721 eV

CRYSTAL
PRIMVEC
		17.42622854		0.00000000		0.00000000
		0.00000000		6.73129900		0.00000000
		0.00000000		0.00000000		10.88440492
PRIMECORD
   112 1
Ca		13.46332991		6.72409674		2.52060811		-0.00015078		 0.00012979		-0.00003601
Ca		3.96289863		0.00720226		8.36379158		 0.00015078		-0.00012979		 0.00003601
Ca		3.96289863		0.00720226		2.52060811		 0.00015078		-0.00012979		-0.00003601
Ca		13.46332991		6.72409674		8.36379158		-0.00015078		 0.00012979		 0.00003601
Ca		12.67601290		3.35844724		2.92159086		 0.00015078		 0.00012979		 0.00003601
Ca		4.75021564		3.37285350		7.96281057		-0.00015078		-0.00012979		-0.00003601
Ca		4.75021564		3.37285350		2.92159086		-0.00015078		-0.00012979		 0.00003601
Ca		12.67601290		3.35844724		7.96281057		 0.00015078		 0.00012979		-0.00003601
Ca		7.17768927		1.06469028		8.14849749		 0.00040831		-0.00039925		-0.00009252
Ca		10.24853927		5.66661046		2.73590220		-0.00040831		 0.00039925		 0.00009252
Ca		10.24853927		5.66661046		8.14849749		-0.00040831		 0.00039925		-0.00009252
Ca		7.17768927		1.06469028		2.73590220		 0.00040831		-0.00039925		 0.00009252
Ca		1.53542500		4.43033979		8.17810291		-0.00040831		-0.00039925		 0.00009252
Ca		15.89080528		2.30095922		2.70629678		 0.00040831		 0.00039925		-0.00009252
Ca		15.89080528		2.30095922		8.17810291		 0.00040831		 0.00039925		 0.00009252
Ca		1.53542500		4.43033979		2.70629678		-0.00040831		-0.00039925		-0.00009252
Ca		5.79892607		5.40388741		0.00000000		 0.00068672		-0.00067733		0.00000000
Ca		11.62730247		1.32741159		0.00000000		-0.00068672		 0.00067733		-0.00000000
Ca		2.91418820		2.03823791		5.44220072		-0.00068672		-0.00067733		0.00000000
Ca		14.51204034		4.69306109		5.44220072		 0.00068672		 0.00067733		0.00000000
Ca		11.73273115		1.15643764		5.44220072		 0.00025870		-0.00083635		0.00000000
Ca		5.69349739		5.57486137		5.44220072		-0.00025870		 0.00083635		-0.00000000
Ca		14.40661166		4.52208714		0.00000000		-0.00025870		-0.00083635		-0.00000000
Ca		3.01961688		2.20921361		0.00000000		 0.00025870		 0.00083635		-0.00000000
Ca		8.71311427		3.36564950		0.00000000		0.00000000		0.00000000		0.00000000
Ca		0.00000000		0.00000000		5.44220072		0.00000000		0.00000000		0.00000000
Ca		8.71311427		3.36564950		5.44220072		0.00000000		0.00000000		0.00000000
Ca		0.00000000		0.00000000		0.00000000		0.00000000		0.00000000		0.00000000
Si		7.30472648		4.84249623		8.18267381		-0.00010426		-0.00001490		 0.00005108
Si		10.12150206		1.88880277		2.70172588		 0.00010426		 0.00001490		-0.00005108
Si		10.12150206		1.88880277		8.18267381		 0.00010426		 0.00001490		 0.00005108
Si		7.30472648		4.84249623		2.70172588		-0.00010426		-0.00001490		-0.00005108
Si		1.40838779		1.47684673		8.14392659		 0.00010426		-0.00001490		-0.00005108
Si		16.01784075		5.25445227		2.74047310		-0.00010426		 0.00001490		 0.00005108
Si		16.01784075		5.25445227		8.14392659		-0.00010426		 0.00001490		-0.00005108
Si		1.40838779		1.47684673		2.74047310		 0.00010426		-0.00001490		 0.00005108
Si		11.56805329		4.95087169		5.44220072		-0.00007197		 0.00025289		0.00000000
Si		5.85817525		1.78042906		5.44220072		 0.00007197		-0.00025289		0.00000000
Si		14.57128952		1.58522044		0.00000000		 0.00007197		 0.00025289		-0.00000000
Si		2.85493902		5.14607856		0.00000000		-0.00007197		-0.00025289		-0.00000000
Si		5.89320197		1.90361158		0.00000000		 0.00025275		-0.00047251		0.00000000
Si		11.53302657		4.82768916		0.00000000		-0.00025275		 0.00047251		0.00000000
Si		2.81991230		5.26926108		5.44220072		-0.00025275		-0.00047251		0.00000000
Si		14.60631624		1.46203792		5.44220072		 0.00025275		 0.00047251		0.00000000
Mg		8.71311427		0.00000000		5.44220072		0.00000000		0.00000000		0.00000000
Mg		0.00000000		3.36564950		0.00000000		0.00000000		0.00000000		0.00000000
Mg		8.71311427		0.00000000		0.00000000		0.00000000		0.00000000		0.00000000
Mg		0.00000000		3.36564950		5.44220072		0.00000000		0.00000000		0.00000000
O		5.03095218		1.72994353		1.32789778		-0.00020589		-0.00048205		-0.00040706
O		12.39527636		5.00135547		9.55650365		 0.00020589		 0.00048205		 0.00040706
O		12.39527636		5.00135547		1.32789778		 0.00020589		 0.00048205		-0.00040706
O		5.03095218		1.72994353		9.55650365		-0.00020589		-0.00048205		 0.00040706
O		3.68216209		5.09559303		4.11430468		 0.00020589		-0.00048205		 0.00040706
O		13.74406645		1.63570597		6.77009676		-0.00020589		 0.00048205		-0.00040706
O		13.74406645		1.63570597		4.11430468		-0.00020589		 0.00048205		 0.00040706
O		3.68216209		5.09559303		6.77009676		 0.00020589		-0.00048205		-0.00040706
O		12.14259605		5.70410299		4.13933745		 0.00052776		 0.00017067		 0.00027212
O		5.28363249		1.02719601		6.74506224		-0.00052776		-0.00017067		-0.00027212
O		5.28363249		1.02719601		4.13933745		-0.00052776		-0.00017067		 0.00027212
O		12.14259605		5.70410299		6.74506224		 0.00052776		 0.00017067		-0.00027212
O		13.99674676		2.33845349		1.30286326		-0.00052776		 0.00017067		-0.00027212
O		3.42948178		4.39284551		9.58153643		 0.00052776		-0.00017067		 0.00027212
O		3.42948178		4.39284551		1.30286326		 0.00052776		-0.00017067		-0.00027212
O		13.99674676		2.33845349		9.58153643		-0.00052776		 0.00017067		 0.00027212
O		8.28965692		5.25647197		9.36711540		 0.00027798		-0.00005229		-0.00009005
O		9.13657162		1.47482877		1.51728429		-0.00027798		 0.00005229		 0.00009005
O		9.13657162		1.47482877		9.36711540		-0.00027798		 0.00005229		-0.00009005
O		8.28965692		5.25647197		1.51728429		 0.00027798		-0.00005229		 0.00009005
O		0.42345735		1.89082247		6.95948501		-0.00027798		-0.00005229		 0.00009005
O		17.00277118		4.84047827		3.92491468		 0.00027798		 0.00005229		-0.00009005
O		17.00277118		4.84047827		6.95948501		 0.00027798		 0.00005229		 0.00009005
O		0.42345735		1.89082247		3.92491468		-0.00027798		-0.00005229		-0.00009005
O		5.90627164		5.45302589		8.55731507		-0.00063082		-0.00043022		-0.00003910
O		11.51995690		1.27827311		2.32708462		 0.00063082		 0.00043022		 0.00003910
O		11.51995690		1.27827311		8.55731507		 0.00063082		 0.00043022		-0.00003910
O		5.90627164		5.45302589		2.32708462		-0.00063082		-0.00043022		 0.00003910
O		2.80684263		2.08737639		7.76928533		 0.00063082		-0.00043022		 0.00003910
O		14.61938591		4.64392436		3.11511436		-0.00063082		 0.00043022		-0.00003910
O		14.61938591		4.64392436		7.76928533		-0.00063082		 0.00043022		 0.00003910
O		2.80684263		2.08737639		3.11511436		 0.00063082		-0.00043022		-0.00003910
O		6.55226193		3.33805158		0.00000000		-0.00028170		-0.00009460		0.00000000
O		10.87396661		3.39324742		0.00000000		 0.00028170		 0.00009460		-0.00000000
O		2.16085234		6.70370108		5.44220072		 0.00028170		-0.00009460		-0.00000000
O		15.26537620		0.02759792		5.44220072		-0.00028170		 0.00009460		0.00000000
O		7.17089304		3.29497046		7.82697138		 0.00013983		 0.00004842		 0.00015845
O		10.25533549		3.43632854		3.05742831		-0.00013983		-0.00004842		-0.00015845
O		10.25533549		3.43632854		7.82697138		-0.00013983		-0.00004842		 0.00015845
O		7.17089304		3.29497046		3.05742831		 0.00013983		 0.00004842		-0.00015845
O		1.54222123		6.66061996		8.49962729		-0.00013983		 0.00004842		-0.00015845
O		15.88400731		0.07067904		2.38477240		 0.00013983		-0.00004842		 0.00015845
O		15.88400731		0.07067904		8.49962729		 0.00013983		-0.00004842		-0.00015845
O		1.54222123		6.66061996		2.38477240		-0.00013983		 0.00004842		 0.00015845
O		6.93215371		0.70342017		0.00000000		 0.00049834		-0.00041295		0.00000000
O		10.49407657		6.02787883		0.00000000		-0.00049834		 0.00041295		0.00000000
O		1.78096056		4.06907141		5.44220072		-0.00049834		-0.00041295		0.00000000
O		15.64526798		2.66222933		5.44220072		 0.00049834		 0.00041295		0.00000000
O		10.04447813		5.19521704		5.44220072		-0.00044323		 0.00068522		0.00000000
O		7.38175041		1.53608371		5.44220072		 0.00044323		-0.00068522		0.00000000
O		16.09486642		1.82956754		0.00000000		 0.00044323		 0.00068522		0.00000000
O		1.33136386		4.90173321		0.00000000		-0.00044323		-0.00068522		0.00000000
O		12.10425834		3.45046470		5.44220072		 0.00011828		 0.00050481		0.00000000
O		5.32197020		3.28083605		5.44220072		-0.00011828		-0.00050481		0.00000000
O		14.03508446		0.08481345		0.00000000		-0.00011828		 0.00050481		-0.00000000
O		3.39114407		6.64648555		0.00000000		 0.00011828		-0.00050481		0.00000000
O		7.74247334		5.66102361		6.85281732		 0.00010582		 0.00008784		 0.00043970
O		9.68375520		1.07027713		4.03158237		-0.00010582		-0.00008784		-0.00043970
O		9.68375520		1.07027713		6.85281732		-0.00010582		-0.00008784		 0.00043970
O		7.74247334		5.66102361		4.03158237		 0.00010582		 0.00008784		-0.00043970
O		0.97064093		2.29537237		9.47378134		-0.00010582		 0.00008784		-0.00043970
O		16.45558761		4.43592663		1.41061835		 0.00010582		-0.00008784		 0.00043970
O		16.45558761		4.43592663		9.47378134		 0.00010582		-0.00008784		-0.00043970
O		0.97064093		2.29537237		1.41061835		-0.00010582		 0.00008784		 0.00043970
