# total energy = -4139.22026029 eV

CRYSTAL
PRIMVEC
		3.39048171		0.00000000		0.00000000
		-1.69524086		2.86462817		0.00000000
		0.00000000		0.00000000		4.98288248
PRIMECORD
   4 1
Mg		0.00000000		1.90975189		0.01076207		0.00000000		 0.00035369		-0.00046059
Mg		1.69524086		0.95487594		2.50220195		0.00000000		-0.00035369		-0.00046059
O		0.00000000		1.90975189		2.00531194		0.00000000		-0.00003719		 0.00046059
O		1.69524086		0.95487594		4.49675250		0.00000000		 0.00003719		 0.00046059
