# total energy = -4139.13094048 eV

CRYSTAL
PRIMVEC
		3.14239815		0.00000000		0.00000000
		-1.57119907		2.86462901		0.00000000
		0.00000000		0.00000000		4.98288189
PRIMECORD
   4 1
Mg		0.00000000		1.90975194		0.01076209		0.00000000		-0.00066995		 0.00007450
Mg		1.57119907		0.95487613		2.50220209		0.00000000		 0.00066995		 0.00007450
O		0.00000000		1.90975194		2.00531195		0.00000000		-0.00021127		-0.00007450
O		1.57119907		0.95487613		4.49675321		0.00000000		 0.00021127		-0.00007450
