# total energy = -49431.8230123 eV	

CRYSTAL	
PRIMVEC	
		18.23299940		0.00000000		0.00000000	
		0.00000000		8.37813615		0.00000000	
		0.00000000		0.00000000		5.18019569	
PRIMCOORD
   80 1	
Mg		6.86107767		5.48014494		4.48760609		-0.00050235		 0.00053599		-0.00025869	
Mg		11.37192172		2.89800033		0.69259325		 0.00050235		-0.00053599		 0.00025869	
Mg		2.25542203		2.89800033		1.89750642		 0.00050235		-0.00053599		-0.00025869	
Mg		15.97757737		5.48014494		3.28269291		-0.00050235		 0.00053599		 0.00025869	
Mg		11.37192172		1.29107139		3.28269291		 0.00050235		 0.00053599		 0.00025869	
Mg		6.86107767		7.08707205		1.89750642		-0.00050235		-0.00053599		-0.00025869	
Mg		15.97757737		7.08707205		0.69259325		-0.00050235		-0.00053599		 0.00025869	
Mg		2.25542203		1.29107139		4.48760609		 0.00050235		 0.00053599		-0.00025869	
Mg		6.87201747		4.08183251		1.85917337		-0.00024788		-0.00019721		-0.00020160	
Mg		11.36098192		4.29631276		3.32102597		 0.00024788		 0.00019721		 0.00020160	
Mg		2.24448223		4.29631276		4.44927304		 0.00024788		 0.00019721		-0.00020160	
Mg		15.98851717		4.08183251		0.73092630		-0.00024788		-0.00019721		 0.00020160	
Mg		11.36098192		8.27090424		0.73092630		 0.00024788		-0.00019721		 0.00020160	
Mg		6.87201747		0.10723921		4.44927304		-0.00024788		 0.00019721		-0.00020160	
Mg		15.98851717		0.10723921		3.32102597		-0.00024788		 0.00019721		 0.00020160	
Mg		2.24448223		8.27090424		1.85917337		 0.00024788		-0.00019721		-0.00020160	
Si		4.95025934		2.86364936		0.26211760		-0.00004921		-0.00091432		 0.00010366	
Si		13.28274006		5.51449409		4.91808174		 0.00004921		 0.00091432		-0.00010366	
Si		4.16624036		5.51449409		2.85221727		 0.00004921		 0.00091432		 0.00010366	
Si		14.06675903		2.86364936		2.32798207		-0.00004921		-0.00091432		-0.00010366	
Si		13.28274006		7.05272291		2.32798207		 0.00004921		-0.00091432		-0.00010366	
Si		4.95025934		1.32542236		2.85221727		-0.00004921		 0.00091432		 0.00010366	
Si		14.06675903		1.32542236		4.91808174		-0.00004921		 0.00091432		-0.00010366	
Si		4.16624036		7.05272291		0.26211760		 0.00004921		-0.00091432		 0.00010366	
Si		8.63514851		2.82678588		4.13431803		 0.00027423		-0.00048015		-0.00006081	
Si		9.59785088		5.55135939		1.04588131		-0.00027423		 0.00048015		 0.00006081	
Si		0.48135118		5.55135939		1.54421836		-0.00027423		 0.00048015		-0.00006081	
Si		17.75164821		2.82678588		3.63598098		 0.00027423		-0.00048015		 0.00006081	
Si		9.59785088		7.01585943		3.63598098		-0.00027423		-0.00048015		 0.00006081	
Si		8.63514851		1.36228767		1.54421836		 0.00027423		 0.00048015		-0.00006081	
Si		17.75164821		1.36228767		1.04588131		 0.00027423		 0.00048015		 0.00006081	
Si		0.48135118		7.01585943		4.13431803		-0.00027423		-0.00048015		-0.00006081	
O		3.34575539		2.85443440		0.17612713		 0.00022121		-0.00090239		-0.00035800	
O		14.88724401		5.52371087		5.00407221		-0.00022121		 0.00090239		 0.00035800	
O		5.77074431		5.52371087		2.76622680		-0.00022121		 0.00090239		-0.00035800	
O		12.46225509		2.85443440		2.41397254		 0.00022121		-0.00090239		 0.00035800	
O		14.88724401		7.04350613		2.41397254		-0.00022121		-0.00090239		 0.00035800	
O		3.34575539		1.33463915		2.76622680		 0.00022121		 0.00090239		-0.00035800	
O		12.46225509		1.33463915		5.00407221		 0.00022121		 0.00090239		 0.00035800	
O		5.77074431		7.04350613		0.17612713		-0.00022121		-0.00090239		-0.00035800	
O		5.67775601		4.21336902		0.22274891		-0.00021378		-0.00018367		 0.00037392	
O		12.55524338		4.16477625		4.95745225		 0.00021378		 0.00018367		-0.00037392	
O		3.43874369		4.16477625		2.81284858		 0.00021378		 0.00018367		 0.00037392	
O		14.79425571		4.21336902		2.36735076		-0.00021378		-0.00018367		-0.00037392	
O		12.55524338		0.02429729		2.36735076		 0.00021378		-0.00018367		-0.00037392	
O		5.67775601		8.35384798		2.81284858		-0.00021378		 0.00018367		 0.00037392	
O		14.79425571		8.35384798		4.95745225		-0.00021378		 0.00018367		-0.00037392	
O		3.43874369		0.02429729		0.22274891		 0.00021378		-0.00018367		 0.00037392	
O		5.51548232		1.86329949		4.30992734		-0.00022907		-0.00012199		-0.00015237	
O		12.71751708		6.51484578		0.87027382		 0.00022907		 0.00012199		 0.00015237	
O		3.60101738		6.51484578		1.71982767		 0.00022907		 0.00012199		-0.00015237	
O		14.63198202		1.86329949		3.46037349		-0.00022907		-0.00012199		 0.00015237	
O		12.71751708		6.05237122		3.46037349		 0.00022907		-0.00012199		 0.00015237	
O		5.51548232		2.32577223		1.71982767		-0.00022907		 0.00012199		-0.00015237	
O		14.63198202		2.32577223		0.87027382		-0.00022907		 0.00012199		 0.00015237	
O		3.60101738		6.05237122		4.30992734		 0.00022907		-0.00012199		-0.00015237	
O		10.25059226		2.86029813		4.13380021		-0.00003051		-0.00008332		 0.00048384	
O		7.98240714		5.51784531		1.04640095		 0.00003051		 0.00008332		-0.00048384	
O		17.09890683		5.51784531		1.54370054		 0.00003051		 0.00008332		 0.00048384	
O		1.13409256		2.86029813		3.63650062		-0.00003051		-0.00008332		-0.00048384	
O		7.98240714		7.04937168		3.63650062		 0.00003051		-0.00008332		-0.00048384	
O		10.25059226		1.32877359		1.54370054		-0.00003051		 0.00008332		 0.00048384	
O		1.13409256		1.32877359		1.04640095		-0.00003051		 0.00008332		-0.00048384	
O		17.09890683		7.04937168		4.13380021		 0.00003051		-0.00008332		 0.00048384	
O		7.88394894		4.05167149		3.57433703		 0.00028120		-0.00000822		-0.00080468	
O		10.34905046		4.32647378		1.60586231		-0.00028120		 0.00000822		 0.00080468	
O		1.23255076		4.32647378		0.98423736		-0.00028120		 0.00000822		-0.00080468	
O		17.00044864		4.05167149		4.19596197		 0.00028120		-0.00000822		 0.00080468	
O		10.34905046		8.24074321		4.19596197		-0.00028120		-0.00000822		 0.00080468	
O		7.88394894		0.13740206		0.98423736		 0.00028120		 0.00000822		-0.00080468	
O		17.00044864		0.13740206		1.60586231		 0.00028120		 0.00000822		 0.00080468	
O		1.23255076		8.24074321		3.57433703		-0.00028120		-0.00000822		-0.00080468	
O		8.17385363		1.63457563		3.12366105		 0.00049671		 0.00022947		-0.00092516	
O		10.05914577		6.74356964		2.05654011		-0.00049671		-0.00022947		 0.00092516	
O		0.94264607		6.74356964		0.53356138		-0.00049671		-0.00022947		-0.00092516	
O		17.29035333		1.63457563		4.64663978		 0.00049671		 0.00022947		 0.00092516	
O		10.05914577		5.82364918		4.64663978		-0.00049671		 0.00022947		 0.00092516	
O		8.17385363		2.55449609		0.53356138		 0.00049671		-0.00022947		-0.00092516	
O		17.29035333		2.55449609		2.05654011		 0.00049671		-0.00022947		 0.00092516	
O		0.94264607		5.82364918		3.12366105		-0.00049671		 0.00022947		-0.00092516	
