# total energy = -2069.1846093 eV	

CRYSTAL	
PRIMVEC	
		2.93802190		0.00000000		-0.47008184	
		-1.46900946		2.54440163		0.23504092	
		-0.42874772		0.00000000		2.67968071	
PRIMCOORD
   2 1	
Mg		0.00000000		0.00000000		0.00000000		0.00000000		 0.00032554		0.00000000	
O		-0.21437386		1.69626706		1.33984006		0.00000000		-0.00032554		0.00000000	
