# total energy = -8279.26114685 eV

CRYSTAL
PRIMVEC
		4.17953126		0.00000000		0.00000000
		0.00000000		4.17953126		0.00000000
		0.00000000		0.00000000		4.17953126
PRIMECORD
   8 1
Mg		0.00000000		0.00000000		0.00000000		 0.00000001		-0.00000004		 0.00000002
Mg		0.00000000		2.08976479		2.08976479		-0.00000002		-0.00000003		-0.00000001
Mg		2.08976479		0.00000000		2.08976479		 0.00000005		 0.00000001		 0.00000006
Mg		2.08976479		2.08976437		0.00000000		 0.00000005		 0.00000016		-0.00000008
O		2.08976479		2.08976479		2.08976479		 0.00000007		 0.00000001		 0.00000004
O		2.08976521		0.00000000		0.00000000		-0.00000013		-0.00000009		-0.00000014
O		0.00000000		2.08976479		0.00000000		 0.00000002		 0.00000004		 0.00000013
O		0.00000000		0.00000000		2.08976479		-0.00000004		-0.00000005		-0.00000002
