# total energy = -8279.22225099 eV

CRYSTAL
PRIMVEC
		4.16045122		0.00000000		0.00000000
		0.00000000		4.16045122		0.00000000
		0.00000000		0.00000000		4.16045122
PRIMECORD
   8 1
Mg		0.00000000		0.00000000		0.00000000		-0.00000001		-0.00000007		 0.00000004
Mg		0.00000000		2.08022477		2.08022477		-0.00000000		-0.00000005		 0.00000002
Mg		2.08022477		0.00000000		2.08022477		 0.00000003		 0.00000001		 0.00000002
Mg		2.08022477		2.08022435		0.00000000		 0.00000003		 0.00000014		-0.00000006
O		2.08022477		2.08022477		2.08022477		-0.00000001		-0.00000003		 0.00000005
O		2.08022477		0.00000000		0.00000000		 0.00000006		-0.00000008		-0.00000002
O		0.00000000		2.08022477		0.00000000		-0.00000002		 0.00000005		 0.00000003
O		0.00000000		0.00000000		2.08022477		-0.00000007		 0.00000001		-0.00000008
