# total energy = -8279.17176649 eV

CRYSTAL
PRIMVEC
		4.14251657		0.00000000		0.00000000
		0.00000000		4.14251236		0.00000000
		0.00000000		0.00000000		4.14251236
PRIMECORD
   8 1
Mg		0.00000000		0.00000000		0.00000000		-0.00000003		-0.00000013		 0.00000006
Mg		0.00000000		2.07125702		2.07125702		-0.00000004		-0.00000006		 0.00000003
Mg		2.07125744		0.00000000		2.07125702		 0.00000005		-0.00000003		 0.00000003
Mg		2.07125744		2.07125660		0.00000000		-0.00000001		 0.00000020		-0.00000010
O		2.07125744		2.07125702		2.07125702		 0.00000004		-0.00000001		 0.00000010
O		2.07125744		0.00000000		0.00000000		-0.00000004		-0.00000009		 0.00000001
O		0.00000000		2.07125702		0.00000000		 0.00000005		 0.00000006		-0.00000004
O		0.00000000		0.00000000		2.07125744		-0.00000002		 0.00000006		-0.00000008
