# total energy = -21542.2466459 eV

CRYSTAL
PRIMVEC
		5.18479989		0.00000000		0.00000000
		0.00000000		8.92299913		0.00000000
		-0.14435001		-0.11066955		9.64761121
PRIMECORD
   42 1
Mg		0.00000000		0.00000000		0.00000000		0.00000000		0.00000000		0.00000000
Mg		2.59239994		4.46150008		0.00000000		0.00000000		0.00000000		0.00000000
Mg		2.59239994		1.48648316		0.00000000		-0.00003257		 0.00023946		 0.00026741
Mg		2.59239994		7.43651804		0.00000000		 0.00003257		-0.00023946		-0.00026741
Mg		0.00000000		5.94798273		0.00000000		-0.00003224		 0.00024335		 0.00026658
Mg		0.00000000		2.97501692		0.00000000		 0.00003224		-0.00024335		-0.00026658
Si		4.28040591		1.45641910		2.80745404		-0.00015948		-0.00000888		-0.00004013
Si		0.76004293		7.35591099		6.84015510		 0.00015948		 0.00000888		 0.00004013
Si		1.68800597		5.91791867		2.80745404		-0.00015246		-0.00002456		-0.00005548
Si		3.35244287		2.89440987		6.84015510		 0.00015246		 0.00002456		 0.00005548
Si		1.68800597		2.94067073		2.80745404		-0.00008110		-0.00007285		-0.00007314
Si		3.35244287		5.87165884		6.84015510		 0.00008110		 0.00007285		 0.00007314
Si		4.28040591		7.40217081		2.80745404		-0.00008653		-0.00008182		-0.00005685
Si		0.76004293		1.41015876		6.84015510		 0.00008653		 0.00008182		 0.00005685
O		1.71272606		2.95861169		1.13455917		-0.00020569		-0.00033952		 0.00020740
O		3.32772382		5.85371788		8.51304996		 0.00020569		 0.00033952		-0.00020740
O		4.30512600		7.42011177		1.13455917		-0.00020641		-0.00033455		 0.00019621
O		0.73532387		1.39221780		8.51304996		 0.00020641		 0.00033455		-0.00019621
O		4.30512600		1.47694780		1.13455917		-0.00020898		-0.00003947		 0.00020337
O		0.73532387		7.33538177		8.51304996		 0.00020898		 0.00003947		-0.00020337
O		1.71272606		5.93844788		1.13455917		-0.00020879		-0.00003470		 0.00021514
O		3.32772382		2.87388169		8.51304996		 0.00020879		 0.00003470		-0.00021514
O		1.71012899		-0.01246219		1.08632083		-0.00013924		-0.00024919		-0.00006763
O		3.33031985		-0.09820892		8.56128882		 0.00013924		 0.00024919		 0.00006763
O		4.30252893		4.44903893		1.08632083		-0.00014095		-0.00024929		 0.00021681
O		0.73792094		4.36329116		8.56128882		 0.00014095		 0.00024929		-0.00021681
O		1.77272715		4.42297598		3.35833280		 0.00001291		-0.00000987		-0.00003429
O		3.26772168		4.38935411		6.28927581		-0.00001291		 0.00000987		 0.00003429
O		4.36512710		-0.03852514		3.35833280		 0.00001264		-0.00001584		-0.00003334
O		0.67532174		-0.07214597		6.28927581		-0.00001264		 0.00001584		 0.00003334
O		2.93016995		2.11174100		3.36605090		-0.00013359		-0.00020470		-0.00014493
O		2.11027888		6.70058910		6.28155875		 0.00013359		 0.00020470		 0.00014493
O		0.33777001		6.57324108		3.36605090		-0.00015362		-0.00019464		-0.00014382
O		4.70267986		2.23908901		6.28155875		 0.00015362		 0.00019464		 0.00014382
O		0.33771816		2.27253305		3.36605090		-0.00008054		-0.00000315		-0.00030511
O		4.70273067		6.53979705		6.28155875		 0.00008054		 0.00000315		 0.00030511
O		2.93011914		6.73403261		3.36605090		-0.00006100		 0.00000683		-0.00030533
O		2.11033073		2.07829593		6.28155875		 0.00006100		-0.00000683		 0.00030533
H		1.69733912		-0.00881416		1.95846483		-0.00046500		 0.00000865		 0.00047781
H		3.34311075		8.82114373		7.68914482		 0.00046500		-0.00000865		-0.00047781
H		4.28973907		4.45268592		1.95846483		-0.00046693		 0.00000858		 0.00021978
H		0.75071081		4.35964313		7.68914482		 0.00046693		-0.00000858		-0.00021978
