# total energy = -21541.2941905 eV

CRYSTAL
PRIMVEC
		5.18479989		0.00000000		0.00000000
		0.00000000		8.92299913		0.00000000
		-0.14435001		-0.11066955		8.95849427
PRIMECORD
   42 1
Mg		0.00000000		0.00000000		0.00000000		0.00000000		0.00000000		0.00000000
Mg		2.59239994		4.46150008		0.00000000		0.00000000		0.00000000		0.00000000
Mg		2.59239994		1.48648316		0.00000000		-0.00013982		-0.00042079		 0.00014720
Mg		2.59239994		7.43651804		0.00000000		 0.00013982		 0.00042079		-0.00014720
Mg		0.00000000		5.94798273		0.00000000		-0.00014233		-0.00054624		 0.00014174
Mg		0.00000000		2.97501692		0.00000000		 0.00014233		 0.00054624		-0.00014174
Si		4.28040591		1.45641910		2.60692205		-0.00027645		 0.00022643		 0.00028290
Si		0.76004293		7.35591099		6.35157170		 0.00027645		-0.00022643		-0.00028290
Si		1.68800597		5.91791867		2.60692205		-0.00012670		-0.00067182		 0.00003795
Si		3.35244287		2.89440987		6.35157170		 0.00012670		 0.00067182		-0.00003795
Si		1.68800597		2.94067073		2.60692205		-0.00021576		 0.00014358		-0.00038250
Si		3.35244287		5.87165884		6.35157170		 0.00021576		-0.00014358		 0.00038250
Si		4.28040591		7.40217081		2.60692205		-0.00033483		-0.00059946		-0.00014875
Si		0.76004293		1.41015876		6.35157170		 0.00033483		 0.00059946		 0.00014875
O		1.71272606		2.95861169		1.05351919		-0.00040345		-0.00000673		-0.00004857
O		3.32772382		5.85371788		7.90497508		 0.00040345		 0.00000673		 0.00004857
O		4.30512600		7.42011177		1.05351919		-0.00038960		 0.00009218		-0.00004094
O		0.73532387		1.39221780		7.90497508		 0.00038960		-0.00009218		 0.00004094
O		4.30512600		1.47694780		1.05351919		-0.00030014		-0.00022567		-0.00003521
O		0.73532387		7.33538177		7.90497508		 0.00030014		 0.00022567		 0.00003521
O		1.71272606		5.93844788		1.05351919		-0.00031388		-0.00012156		-0.00000077
O		3.32772382		2.87388169		7.90497508		 0.00031388		 0.00012156		 0.00000077
O		1.71012899		-0.01246219		1.00872615		-0.00018112		-0.00003726		-0.00004733
O		3.33031985		-0.09820892		7.94976760		 0.00018112		 0.00003726		 0.00004733
O		4.30252893		4.44903893		1.00872615		-0.00016636		-0.00003197		 0.00006265
O		0.73792094		4.36329116		7.94976760		 0.00016636		 0.00003197		-0.00006265
O		1.77272715		4.42297598		3.11845181		 0.00027259		 0.00005074		 0.00019413
O		3.26772168		4.38935411		5.84004194		-0.00027259		-0.00005074		-0.00019413
O		4.36512710		-0.03852514		3.11845181		 0.00033250		-0.00007114		 0.00038316
O		0.67532174		-0.07214597		5.84004194		-0.00033250		 0.00007114		-0.00038316
O		2.93016995		2.11174100		3.12561876		 0.00057356		-0.00029705		 0.00040003
O		2.11027888		6.70058910		5.83287602		-0.00057356		 0.00029705		-0.00040003
O		0.33777001		6.57324108		3.12561876		-0.00020062		 0.00021893		 0.00041617
O		4.70267986		2.23908901		5.83287602		 0.00020062		-0.00021893		-0.00041617
O		0.33771816		2.27253305		3.12561876		-0.00054949		-0.00036745		 0.00014658
O		4.70273067		6.53979705		5.83287602		 0.00054949		 0.00036745		-0.00014658
O		2.93011914		6.73403261		3.12561876		 0.00021532		 0.00015106		 0.00014806
O		2.11033073		2.07829593		5.83287602		-0.00021532		-0.00015106		-0.00014806
H		1.69733912		-0.00881416		1.81857375		 0.00046260		 0.00012046		-0.00030135
H		3.34311075		8.82114373		7.13992000		-0.00046260		-0.00012046		 0.00030135
H		4.28973907		4.45268592		1.81857375		 0.00045439		 0.00011835		-0.00040503
H		0.75071081		4.35964313		7.13992000		-0.00045439		-0.00011835		 0.00040503
