# total energy = -24714.0924387 eV	

CRYSTAL	
PRIMVEC	
		9.68099686		0.77447781		0.00000000	
		0.69912295		8.73899798		0.00000000	
		1.61441402		0.12914924		4.94514932	
PRIMCOORD
   40 1	
Si		2.64414561		3.77159086		0.99397518		 0.00000049		 0.00001278		-0.00003120	
Si		9.35038627		5.87104291		3.95117220		-0.00000049		-0.00001278		 0.00003120	
Si		3.92639901		8.21570563		1.47859851		 0.00019866		-0.00006766		-0.00030380	
Si		8.06813384		1.42692716		3.46654790		-0.00019866		 0.00006766		 0.00030380	
Si		8.41733888		4.23344554		1.47859851		 0.00016460		 0.00004236		-0.00014221	
Si		3.57719397		5.40918822		3.46654790		-0.00016460		-0.00004236		 0.00014221	
Si		7.83420551		8.52833070		0.99397518		-0.00004297		-0.00004221		-0.00003040	
Si		4.16032637		1.11430307		3.95117220		 0.00004297		 0.00004221		 0.00003040	
O		4.32747159		3.99308695		0.49451493		-0.00030484		-0.00004113		-0.00001674	
O		7.66706029		5.64954585		4.45063148		 0.00030484		 0.00004113		 0.00001674	
O		2.25705530		8.16898834		1.97805876		 0.00017677		-0.00035599		-0.00072365	
O		9.73747658		1.47364349		2.96708765		-0.00017677		 0.00035599		 0.00072365	
O		8.77649283		2.87288679		0.78627780		-0.00020191		-0.00041941		 0.00022745	
O		3.21803905		6.76974600		4.15886861		 0.00020191		 0.00041941		-0.00022745	
O		7.25133241		7.09240932		1.68629492		 0.00017859		-0.00036072		 0.00025821	
O		4.74319947		2.55022348		3.25885149		-0.00017859		 0.00036072		-0.00025821	
O		3.32841124		4.52097790		4.69788846		 0.00028165		 0.00014838		-0.00024791	
O		8.66612161		5.12165587		0.24725698		-0.00028165		-0.00014838		 0.00024791	
O		4.96840551		8.99371275		2.71983067		-0.00059179		 0.00071049		 0.00024773	
O		7.02612637		0.64892101		2.22531574		 0.00059179		-0.00071049		-0.00024773	
O		9.45934538		5.01145170		2.71983067		-0.00081321		 0.00056418		 0.00078106	
O		2.53518650		4.63118110		2.22531574		 0.00081321		-0.00056418		-0.00078106	
O		8.51847018		9.27771773		4.69788846		 0.00022683		-0.00005307		-0.00041018	
O		3.47606171		0.36491603		0.24725698		-0.00022683		 0.00005307		 0.00041018	
O		2.06127251		2.33566851		1.68629492		-0.00067630		-0.00012322		-0.00017620	
O		9.93325937		7.30696332		3.25885149		 0.00067630		 0.00012322		 0.00017620	
O		4.28555296		6.85514688		0.78627780		 0.00002907		-0.00011363		-0.00035680	
O		7.70897892		2.78748591		4.15886764		-0.00002907		 0.00011363		 0.00035680	
O		6.74799614		4.18672922		1.97805876		 0.00024641		-0.00006763		-0.00046447	
O		5.24653671		5.45590357		2.96708765		-0.00024641		 0.00006763		 0.00046447	
O		9.51753052		8.74982678		0.49451493		-0.00033420		 0.00035841		-0.00001615	
O		2.47700136		0.89280601		4.45063148		 0.00033420		-0.00035841		 0.00001615	
Mg		0.46722344		0.82753699		1.23628685		-0.00039200		-0.00032221		 0.00036171	
Mg		1.84630964		8.04061606		3.70885957		 0.00039200		 0.00032221		-0.00036171	
Mg		5.65728237		5.58427780		1.23628685		 0.00015830		 0.00033158		 0.00044637	
Mg		6.33724951		4.05835597		3.70885957		-0.00015830		-0.00033158		-0.00044637	
Mg		0.80527531		6.05574050		0.98902889		 0.00013846		 0.00000580		 0.00032002	
Mg		1.50825777		2.81241255		3.95611655		-0.00013846		-0.00000580		-0.00032002	
Mg		5.45765658		2.08639630		1.48354383		 0.00014893		-0.00029925		-0.00022867	
Mg		6.53687530		7.55623649		3.46160258		-0.00014893		 0.00029925		 0.00022867	
