# total energy = -24714.0924387 eV	

CRYSTAL	
PRIMVEC	
		9.68099686		-0.77447781		0.00000000	
		-0.69912295		8.73899798		0.00000000	
		1.61441402		-0.12914924		4.94514932	
PRIMCOORD
   40 1	
Si		2.07086790		3.39439021		0.99397518		-0.00019867		-0.00006760		 0.00030381	
Si		8.52542489		4.44097782		3.95117220		 0.00019867		 0.00006760		-0.00030381	
Si		2.65400030		7.68927342		1.47859851		-0.00000047		 0.00001281		 0.00003118	
Si		7.94229151		0.14609267		3.46654790		 0.00000047		-0.00001281		-0.00003118	
Si		7.84405923		2.93253358		1.47859851		 0.00004295		-0.00004216		 0.00003038	
Si		2.75223161		4.90283251		3.46654790		-0.00004295		 0.00004216		-0.00003038	
Si		6.56180680		7.37664835		0.99397518		-0.00016463		 0.00004241		 0.00014224	
Si		4.03448502		0.45871773		3.95117220		 0.00016463		-0.00004241		-0.00014224	
O		3.74021064		3.34767291		0.49451493		-0.00017674		-0.00035601		 0.00072365	
O		6.85608214		4.48769511		4.45063148		 0.00017674		 0.00035601		-0.00072365	
O		0.97067529		7.91077048		1.97805876		 0.00030482		-0.00004114		 0.00001674	
O		9.62561750		-0.07540439		2.96708765		-0.00030482		 0.00004114		-0.00001674	
O		8.42693233		1.49661317		0.78627780		-0.00017858		-0.00036076		-0.00025824	
O		2.16935852		6.33875389		4.15886861		 0.00017858		 0.00036076		 0.00025824	
O		6.20265285		6.01609057		1.68629492		 0.00020192		-0.00041943		-0.00022742	
O		4.39363993		1.81927551		3.25885149		-0.00020192		 0.00041943		 0.00022742	
O		2.64327250		4.04324324		4.69788846		 0.00059179		 0.00071050		-0.00024777	
O		7.95301834		3.79212382		0.24725698		-0.00059179		-0.00071050		 0.00024777	
O		3.58414771		8.30950733		2.71983067		-0.00028167		 0.00014841		 0.00024793	
O		7.01214411		-0.47414125		2.22531574		 0.00028167		-0.00014841		-0.00024793	
O		8.77420761		3.55276749		2.71983067		-0.00022684		-0.00005306		 0.00041021	
O		1.82208517		4.28259859		2.22531574		 0.00022684		 0.00005306		-0.00041021	
O		7.13421237		8.02550235		4.69788846		 0.00081321		 0.00056419		-0.00078107	
O		3.46207847		-0.19013627		0.24725698		-0.00081321		-0.00056419		 0.00078107	
O		1.71171298		2.03383048		1.68629492		-0.00002908		-0.00011367		 0.00035685	
O		8.88457980		5.80153657		3.25885149		 0.00002908		 0.00011367		-0.00035685	
O		3.23687242		6.25335301		0.78627780		 0.00067630		-0.00012323		 0.00017616	
O		7.35941842		1.58201405		4.15886764		-0.00067630		 0.00012323		-0.00017616	
O		6.16073519		3.15403064		1.97805876		 0.00033423		 0.00035842		 0.00001614	
O		4.43555759		4.68133642		2.96708765		-0.00033423		-0.00035842		-0.00001614	
O		8.23114954		7.32993300		0.49451493		-0.00024639		-0.00006765		 0.00046446	
O		2.36514227		0.50543405		4.45063148		 0.00024639		 0.00006765		-0.00046446	
Mg		0.33998260		0.76296140		1.23628685		-0.00015829		 0.00033158		-0.00044638	
Mg		0.57531042		7.84688540		3.70885957		 0.00015829		-0.00033158		 0.00044638	
Mg		4.83092247		4.74522052		1.23628685		 0.00039199		-0.00032221		-0.00036173	
Mg		5.76536838		3.09014557		3.70885957		-0.00039199		 0.00032221		 0.00036173	
Mg		-0.15950970		6.00407983		0.98902889		-0.00014894		-0.00029922		 0.00022869	
Mg		1.07480271		2.60576795		3.95611655		 0.00014894		 0.00029922		-0.00022869	
Mg		5.19199063		1.23442410		1.48354383		-0.00013849		 0.00000583		-0.00032007	
Mg		5.40430215		6.60094296		3.46160258		 0.00013849		-0.00000583		 0.00032007	
