# total energy = -7658.47816671 eV	

CRYSTAL	
PRIMVEC	
		5.54070037		0.00000000		0.22162779	
		-2.77034741		4.79838478		-0.11081390	
		0.19374133		0.00000000		4.84349997	
PRIMCOORD
   15 1	
Mg		0.00000000		0.00000000		0.00000000		0.00000000		0.00000000		0.00000000	
Mg		0.00211214		3.19892504		0.05279408		 0.00006811		-0.00000545		-0.00069876	
Mg		2.96197827		1.59946196		4.90152034		-0.00006811		 0.00000545		 0.00069876	
O		0.95572993		1.60553998		1.10209422		 0.00003863		 0.00009603		 0.00031409	
O		2.00835992		3.19284702		3.85222020		-0.00003863		-0.00009603		-0.00031409	
O		0.96598122		4.78639122		1.10250400		 0.00026540		-0.00023932		 0.00082596	
O		1.99811030		0.01199578		3.85180986		-0.00026540		 0.00023932		-0.00082596	
O		-1.79384209		3.20484225		0.99211098		 0.00039022		 0.00008489		 0.00060329	
O		4.75793194		1.59354420		3.96220288		-0.00039022		-0.00008489		-0.00060329	
H		0.86770708		1.67607682		2.07539501		 0.00033059		-0.00012460		-0.00011302	
H		2.09638333		3.12231018		2.87891886		-0.00033059		 0.00012460		 0.00011302	
H		1.00760907		4.64100010		2.08099115		-0.00028654		 0.00014670		-0.00029790	
H		1.95648078		0.15738690		2.87332327		 0.00028654		-0.00014670		 0.00029790	
H		-1.63004114		3.27969708		1.97548506		-0.00059051		-0.00000166		 0.00010240	
H		4.59413099		1.51868881		2.97882881		 0.00059051		 0.00000166		-0.00010240	
