# total energy = -13384.5789154 eV	

CRYSTAL	
PRIMVEC	
		3.05299894		0.00000000		0.24423930	
		-1.52650100		2.64397429		-0.12212118	
		1.61000086		0.00000000		20.12499998	
PRIMCOORD
   18 1	
O		0.50119301		0.00000000		6.26491253		-0.00029131		 0.00001647		 0.00060259	
O		1.10880692		0.00000000		13.86008592		 0.00029131		-0.00001647		-0.00060259	
O		2.21590177		0.88132487		8.73964425		-0.00038308		 0.00009162		-0.00021926	
O		0.92059794		1.76264973		11.50747416		 0.00038308		-0.00009162		 0.00021926	
O		1.64209790		0.88132487		1.56709504		-0.00013909		 0.00026617		-0.00059306	
O		1.49440181		1.76264973		18.68002367		 0.00013909		-0.00026617		 0.00059306	
O		0.30380711		1.76264973		3.79758777		-0.00029803		-0.00032096		 0.00070293	
O		2.83269291		0.88132487		16.44953094		 0.00029803		 0.00032096		-0.00070293	
H		2.29511377		0.88132487		9.72979427		 0.00024093		 0.00030642		-0.00077322	
H		0.84138594		1.76264973		10.51732414		-0.00024093		-0.00030642		 0.00077322	
H		1.56288590		0.88132487		0.57694502		 0.00004963		-0.00009603		-0.00049578	
H		1.57361381		1.76264973		19.67017369		-0.00004963		 0.00009603		 0.00049578	
Mg		0.60036896		1.76264973		7.50461236		 0.00079487		-0.00010881		 0.00035246	
Mg		2.53613075		0.88132487		12.74250605		-0.00079487		 0.00010881		-0.00035246	
Mg		0.20463085		0.00000000		2.55788794		 0.00082513		-0.00028438		 0.00029434	
Mg		1.40536878		0.00000000		17.56711174		-0.00082513		 0.00028438		-0.00029434	
Mg		1.92916094		0.88132487		5.15538157		 0.00041839		 0.00024851		 0.00077564	
Mg		1.20733878		1.76264973		15.09173592		-0.00041839		-0.00024851		-0.00077564	
