# total energy = -24715.9387145 eV

CRYSTAL
PRIMVEC
		9.61326956		0.00000000		0.00000000
		0.00000000		8.38133868		0.00000000
		-1.62743040		0.00000000		4.91196737
PRIMECORD
   40 1
Mg		2.03778627		5.47636531		1.07424827		 0.00008764		 0.00012776		 0.00026903
Mg		5.94805577		2.90497048		3.83772199		-0.00008764		-0.00012776		-0.00026903
Mg		6.76177001		1.28569694		1.38173734		-0.00008764		 0.00012776		-0.00026903
Mg		1.22407203		7.09563982		3.53023291		 0.00008764		-0.00012776		 0.00026903
Mg		2.11556628		0.10141423		1.06000332		-0.00004631		-0.00031124		-0.00033119
Mg		5.87027576		8.27992253		3.85196693		 0.00004631		 0.00031124		 0.00033119
Mg		6.68399000		4.29208260		1.39598229		 0.00004631		-0.00031124		 0.00033119
Mg		1.30185204		4.08925415		3.51598797		-0.00004631		 0.00031124		-0.00033119
Si		-0.04067759		2.84630166		1.46327614		 0.00032368		 0.00075698		-0.00024107
Si		8.02651963		5.53503510		3.44869412		-0.00032368		-0.00075698		 0.00024107
Si		8.84023387		7.03697003		0.99270851		-0.00032368		 0.00075698		 0.00024107
Si		-0.85439087		1.34436672		3.91926078		 0.00032368		-0.00075698		-0.00024107
Si		4.94609063		7.02104565		1.11108824		 0.00005986		 0.00053044		 0.00046945
Si		3.03975044		1.36029110		3.80088202		-0.00005986		-0.00053044		-0.00046945
Si		3.85346468		2.83037824		1.34489737		-0.00005986		 0.00053044		-0.00046945
Si		4.13237736		5.55095948		3.56707192		 0.00005986		-0.00053044		 0.00046945
O		8.04909831		2.85719830		0.92295944		-0.00045852		 0.00029995		-0.00015396
O		-0.06325724		5.52413846		3.98901082		 0.00045852		-0.00029995		 0.00015396
O		0.75045700		7.04786571		1.53302617		 0.00045852		 0.00029995		 0.00015396
O		7.23538503		1.33347104		3.37894408		-0.00045852		-0.00029995		-0.00015396
O		0.68054066		4.19569708		1.57576004		 0.00053010		-0.00001805		-0.00056711
O		7.30530042		4.18563968		3.33621022		-0.00053010		 0.00001805		 0.00056711
O		8.11901466		0.00502870		0.88022461		-0.00053010		-0.00001805		 0.00056711
O		-0.13317262		8.37630901		4.03174469		 0.00053010		 0.00001805		-0.00056711
O		0.00731378		2.35515587		3.00710762		 0.00032437		 0.00027958		-0.00000385
O		7.97852730		6.02618088		1.90486167		-0.00032437		-0.00027958		 0.00000385
O		7.16481402		6.54582329		4.36084632		-0.00032437		 0.00027958		 0.00000385
O		0.82102802		1.83551251		0.55112298		 0.00032437		-0.00027958		-0.00000385
O		3.39361874		7.02272125		0.62922310		-0.00054960		-0.00002229		 0.00032135
O		4.59222234		1.35861455		4.28274716		 0.00054960		 0.00002229		-0.00032135
O		5.40593658		2.83205383		1.82676155		 0.00054960		-0.00002229		-0.00032135
O		2.57990450		5.54928292		3.08520775		-0.00054960		 0.00002229		 0.00032135
O		5.47592118		8.18353797		1.95791058		-0.00021949		-0.00064429		 0.00090386
O		2.50992086		0.19779879		2.95405872		 0.00021949		 0.00064429		-0.00090386
O		3.32363510		3.99286863		0.49807407		 0.00021949		-0.00064429		-0.00090386
O		4.66220790		4.38846813		4.41389619		-0.00021949		 0.00064429		 0.00090386
O		5.07876145		5.82502899		2.20203571		 0.00043394		-0.00005875		-0.00021718
O		2.90707963		2.55630777		2.70993358		-0.00043394		 0.00005875		 0.00021718
O		3.72079387		1.63436061		0.25394894		-0.00043394		-0.00005875		 0.00021718
O		4.26504817		6.74697614		4.65802036		 0.00043394		 0.00005875		-0.00021718
