# total energy = -24716.8630522 eV

CRYSTAL
PRIMVEC
		9.61326956		0.00000000		0.00000000
		0.00000000		9.04302002		0.00000000
		-1.62743040		0.00000000		4.91196737
PRIMECORD
   40 1
Mg		2.03778627		5.90870961		1.07424827		-0.00072111		 0.00067362		 0.00006538
Mg		5.94805577		3.13431041		3.83772199		 0.00072111		-0.00067362		-0.00006538
Mg		6.76177001		1.38719960		1.38173734		 0.00072111		 0.00067362		-0.00006538
Mg		1.22407203		7.65582138		3.53023291		-0.00072111		-0.00067362		 0.00006538
Mg		2.11556628		0.10942112		1.06000332		-0.00028227		-0.00026111		 0.00023991
Mg		5.87027576		8.93360083		3.85196693		 0.00028227		 0.00026111		-0.00023991
Mg		6.68399000		4.63093113		1.39598229		 0.00028227		-0.00026111		-0.00023991
Mg		1.30185204		4.41208985		3.51598797		-0.00028227		 0.00026111		 0.00023991
Si		-0.04067759		3.07100991		1.46327614		-0.00006392		-0.00042820		 0.00046590
Si		8.02651963		5.97201203		3.44869412		 0.00006392		 0.00042820		-0.00046590
Si		8.84023387		7.59252088		0.99270851		 0.00006392		-0.00042820		-0.00046590
Si		-0.85439087		1.45050106		3.91926078		-0.00006392		 0.00042820		 0.00046590
Si		4.94609063		7.57533909		1.11108824		-0.00018273		 0.00006934		 0.00074380
Si		3.03975044		1.46768190		3.80088202		 0.00018273		-0.00006934		-0.00074380
Si		3.85346468		3.05382908		1.34489737		 0.00018273		 0.00006934		-0.00074380
Si		4.13237736		5.98919287		3.56707192		-0.00018273		-0.00006934		 0.00074380
O		8.04909831		3.08276598		0.92295944		 0.00049106		 0.00039166		 0.00039581
O		-0.06325724		5.96025597		3.98901082		-0.00049106		-0.00039166		-0.00039581
O		0.75045700		7.60427695		1.53302617		-0.00049106		 0.00039166		-0.00039581
O		7.23538503		1.43874499		3.37894408		 0.00049106		-0.00039166		 0.00039581
O		0.68054066		4.52693574		1.57576004		-0.00033883		-0.00022174		 0.00022132
O		7.30530042		4.51608524		3.33621022		 0.00033883		 0.00022174		-0.00022132
O		8.11901466		0.00542573		0.88022461		 0.00033883		-0.00022174		-0.00022132
O		-0.13317262		9.03759525		4.03174469		-0.00033883		 0.00022174		 0.00022132
O		0.00731378		2.54108900		3.00710762		-0.00079994		 0.00035089		 0.00045444
O		7.97852730		6.50193198		1.90486167		 0.00079994		-0.00035089		-0.00045444
O		7.16481402		7.06259997		4.36084632		 0.00079994		 0.00035089		-0.00045444
O		0.82102802		1.98042197		0.55112298		-0.00079994		-0.00035089		 0.00045444
O		3.39361874		7.57714734		0.62922310		 0.00000188		 0.00032250		-0.00025737
O		4.59222234		1.46587364		4.28274716		-0.00000188		-0.00032250		 0.00025737
O		5.40593658		3.05563733		1.82676155		-0.00000188		 0.00032250		 0.00025737
O		2.57990450		5.98738461		3.08520775		 0.00000188		-0.00032250		-0.00025737
O		5.47592118		8.82960640		1.95791058		 0.00058047		 0.00000939		-0.00040977
O		2.50992086		0.21341458		2.95405872		-0.00058047		-0.00000939		 0.00040977
O		3.32363510		4.30809543		0.49807407		-0.00058047		 0.00000939		 0.00040977
O		4.66220790		4.73492556		4.41389619		 0.00058047		-0.00000939		-0.00040977
O		5.07876145		6.28489992		2.20203571		 0.00044357		-0.00037800		 0.00052166
O		2.90707963		2.75812202		2.70993358		-0.00044357		 0.00037800		-0.00052166
O		3.72079387		1.76338895		0.25394894		-0.00044357		-0.00037800		-0.00052166
O		4.26504817		7.27963299		4.65802036		 0.00044357		 0.00037800		 0.00052166
