# total energy = -10831.8617621 eV

CRYSTAL
PRIMVEC
		3.03199980		0.00000000		-0.12127987
		-1.51599838		2.62578749		0.06063994
		-0.59840061		0.00000000		14.95999706
PRIMECORD
   13 1
Mg		1.41626687		0.87526300		2.43269281		 0.00013910		 0.00036491		 0.00025550
Mg		-0.49866697		1.75052570		12.46666462		-0.00013910		-0.00036491		-0.00025550
Mg		0.00000000		0.00000000		0.00000000		0.00000000		0.00000000		0.00000000
Mg		-0.19946697		1.75052570		4.98666639		 0.00004708		-0.00084484		-0.00071032
Mg		1.11706687		0.87526300		9.91269194		-0.00004708		 0.00084484		 0.00071032
O		0.96746702		0.87526300		13.65269242		 0.00029089		-0.00023053		 0.00084854
O		-0.04986712		1.75052570		1.24666592		-0.00029089		 0.00023053		-0.00084854
O		1.27245094		0.87526300		6.02807930		-0.00021776		-0.00060646		 0.00077979
O		-0.35485104		1.75052570		8.87127904		 0.00021776		 0.00060646		-0.00077979
O		-0.44892001		0.00000000		11.22299065		-0.00001088		-0.00040749		-0.00055940
O		-0.14947999		0.00000000		3.73700763		 0.00001088		 0.00040749		 0.00055940
H		1.23283683		0.87526300		7.01843134		-0.00027496		-0.00063103		-0.00079749
H		-0.31523693		1.75052570		7.88092821		 0.00027496		 0.00063103		 0.00079749
