# total energy = -10831.8883789 eV

CRYSTAL
PRIMVEC
		3.03200062		0.00000000		-0.36383934
		-1.51599878		2.62579047		0.18192120
		-1.79520032		0.00000000		14.96000065
PRIMECORD
   13 1
Mg		1.21680005		0.87526318		2.31141306		-0.00002049		 0.00017388		 0.00039389
Mg		-1.49600006		1.75052606		12.46666639		 0.00002049		-0.00017388		-0.00039389
Mg		0.00000000		0.00000000		0.00000000		0.00000000		0.00000000		0.00000000
Mg		-0.59839990		1.75052606		4.98666729		-0.00015446		 0.00014487		-0.00051257
Mg		0.31919989		0.87526318		9.79141338		 0.00015446		-0.00014487		 0.00051257
O		-0.12960003		0.87526318		13.53141461		-0.00038896		 0.00065954		-0.00034452
O		-0.14959998		1.75052606		1.24666606		 0.00038896		-0.00065954		 0.00034452
O		0.78535399		0.87526318		5.90680017		 0.00061085		 0.00081978		 0.00013245
O		-1.06455400		1.75052606		8.87128050		-0.00061085		-0.00081978		-0.00013245
O		-1.34675921		0.00000000		11.22299240		 0.00027923		 0.00085846		 0.00072609
O		-0.44844111		0.00000000		3.73700825		-0.00027923		-0.00085846		-0.00072609
H		0.66651110		0.87526318		6.89715227		-0.00035119		 0.00023232		 0.00048380
H		-0.94571112		1.75052606		7.88092932		 0.00035119		-0.00023232		-0.00048380
