# total energy = -10831.8761007 eV

CRYSTAL
PRIMVEC
		3.03200124		0.00000000		-0.48512155
		-1.51599909		2.62579013		0.24255924
		-2.39360019		0.00000000		14.96000193
PRIMECORD
   13 1
Mg		1.11706705		0.87526317		2.25077319		 0.00075555		 0.00081605		 0.00002712
Mg		-1.99466692		1.75052604		12.46666643		-0.00075555		-0.00081605		-0.00002712
Mg		0.00000000		0.00000000		0.00000000		0.00000000		0.00000000		0.00000000
Mg		-0.79786714		1.75052604		4.98666731		-0.00036321		-0.00021601		-0.00049216
Mg		-0.07973304		0.87526317		9.73077323		 0.00036321		 0.00021601		 0.00049216
O		-0.67813293		0.87526317		13.47077448		 0.00018608		-0.00019128		 0.00028928
O		-0.19946694		1.75052604		1.24666606		-0.00018608		 0.00019128		-0.00028928
O		0.54180509		0.87526317		5.84616037		 0.00064374		 0.00058349		-0.00061641
O		-1.41940496		1.75052604		8.87128048		-0.00064374		-0.00058349		 0.00061641
O		-1.79567899		0.00000000		11.22299233		 0.00025099		 0.00032175		 0.00003725
O		-0.59792088		0.00000000		3.73700806		-0.00025099		-0.00032175		-0.00003725
H		0.38334892		0.87526317		6.83651229		-0.00051977		-0.00067780		 0.00034142
H		-1.26094910		1.75052604		7.88092917		 0.00051977		 0.00067780		-0.00034142
