# total energy = -10831.876101 eV

CRYSTAL
PRIMVEC
		3.03200124		0.00000000		0.48512155
		-1.51599909		2.62579013		-0.24255924
		2.39360019		0.00000000		14.96000193
PRIMECORD
   13 1
Mg		1.91493296		0.87526317		2.73589320		-0.00075547		 0.00081607		 0.00002662
Mg		1.99466692		1.75052604		12.46666643		 0.00075547		-0.00081607		-0.00002662
Mg		0.00000000		0.00000000		0.00000000		0.00000000		0.00000000		0.00000000
Mg		0.79786714		1.75052604		4.98666731		 0.00036324		-0.00021557		-0.00049102
Mg		3.11173305		0.87526317		10.21589324		-0.00036324		 0.00021557		 0.00049102
O		3.71013325		0.87526317		13.95589449		-0.00018592		-0.00019110		 0.00028945
O		0.19946694		1.75052604		1.24666606		 0.00018592		 0.00019110		-0.00028945
O		2.49019523		0.87526317		6.33128038		-0.00064361		 0.00058331		-0.00061759
O		1.41940496		1.75052604		8.87128048		 0.00064361		-0.00058331		 0.00061759
O		1.79567899		0.00000000		11.22299233		-0.00025095		 0.00032201		 0.00003707
O		0.59792088		0.00000000		3.73700806		 0.00025095		-0.00032201		-0.00003707
H		2.64865202		0.87526317		7.32163230		 0.00051962		-0.00067794		 0.00034183
H		1.26094910		1.75052604		7.88092917		-0.00051962		 0.00067794		-0.00034183
