# total energy = -12280.9552266 eV	

CRYSTAL	
PRIMVEC	
		3.14299982		0.00000000		0.00000000	
		-1.57149991		2.72191642		0.00000000	
		0.00000000		0.00000000		22.20269764	
PRIMCOORD
   22 1	
O		0.00000000		1.81461189		14.92687306		0.00000000		0.00000000		-0.00028420	
O		1.57149991		0.90730610		7.27582458		0.00000000		-0.00000000		 0.00028420	
O		1.57149991		0.90730610		17.08275596		0.00000000		-0.00000000		-0.00022800	
O		0.00000000		1.81461189		5.11994168		0.00000000		0.00000000		 0.00022800	
O		0.00000000		1.81461189		10.02451842		0.00000000		0.00000000		 0.00022284	
O		1.57149991		0.90730610		12.17818048		0.00000000		-0.00000000		-0.00022284	
O		0.00000000		1.81461189		19.90915984		0.00000000		-0.00000000		 0.00039896	
O		1.57149991		0.90730610		2.29353780		0.00000000		0.00000000		-0.00039896	
O		0.00000000		0.00000000		0.00000000		0.00000000		0.00000000		0.00000000	
H		0.00000000		1.81461189		13.96327614		0.00000000		0.00000000		-0.00035391	
H		1.57149991		0.90730610		8.23942150		0.00000000		0.00000000		 0.00035391	
H		0.00000000		1.81461189		9.05870035		0.00000000		0.00000000		-0.00032054	
H		1.57149991		0.90730610		13.14399729		0.00000000		-0.00000000		 0.00032054	
H		0.00000000		1.81461189		18.94334302		0.00000000		-0.00000000		 0.00050286	
H		1.57149991		0.90730610		3.25935588		0.00000000		-0.00000000		-0.00050286	
H		1.57149991		0.90730610		18.04857309		0.00000000		-0.00000000		 0.00001138	
H		0.00000000		1.81461189		4.15412487		0.00000000		0.00000000		-0.00001138	
Mg		0.00000000		0.00000000		16.00592524		0.00000000		0.00000000		-0.00022423	
Mg		0.00000000		0.00000000		6.19677271		0.00000000		0.00000000		 0.00022423	
Mg		1.57149991		0.90730610		20.99709194		0.00000000		-0.00000000		 0.00018303	
Mg		0.00000000		1.81461189		1.20560696		0.00000000		0.00000000		-0.00018303	
Mg		0.00000000		0.00000000		11.10134945		0.00000000		-0.00000000		0.00000000	
