# total energy = -12280.7590925 eV	

CRYSTAL	
PRIMVEC	
		3.14299982		0.00000000		0.00000000	
		-1.57149991		2.72191642		0.00000000	
		0.00000000		0.00000000		23.34129647	
PRIMCOORD
   22 1	
O		0.00000000		1.81461189		15.69235412		0.00000000		0.00000000		 0.00000143	
O		1.57149991		0.90730610		7.64894361		0.00000000		-0.00000000		-0.00000143	
O		1.57149991		0.90730610		17.95879487		0.00000000		-0.00000000		-0.00016041	
O		0.00000000		1.81461189		5.38250380		0.00000000		0.00000000		 0.00016041	
O		0.00000000		1.81461189		10.53859627		0.00000000		0.00000000		 0.00010797	
O		1.57149991		0.90730610		12.80270240		0.00000000		0.00000000		-0.00010797	
O		0.00000000		1.81461189		20.93014290		0.00000000		0.00000000		-0.00028747	
O		1.57149991		0.90730610		2.41115577		0.00000000		-0.00000000		 0.00028747	
O		0.00000000		0.00000000		0.00000000		0.00000000		0.00000000		0.00000000	
H		0.00000000		1.81461189		14.67934233		0.00000000		0.00000000		-0.00020345	
H		1.57149991		0.90730610		8.66195539		0.00000000		-0.00000000		 0.00020345	
H		0.00000000		1.81461189		9.52324955		0.00000000		0.00000000		-0.00013322	
H		1.57149991		0.90730610		13.81804818		0.00000000		-0.00000000		 0.00013322	
H		0.00000000		1.81461189		19.91479586		0.00000000		0.00000000		 0.00008988	
H		1.57149991		0.90730610		3.42650187		0.00000000		-0.00000000		-0.00008988	
H		1.57149991		0.90730610		18.97414096		0.00000000		-0.00000000		-0.00038696	
H		0.00000000		1.81461189		4.36715677		0.00000000		-0.00000000		 0.00038696	
Mg		0.00000000		0.00000000		16.82674196		0.00000000		0.00000000		-0.00019253	
Mg		0.00000000		0.00000000		6.51455671		0.00000000		-0.00000000		 0.00019253	
Mg		1.57149991		0.90730610		22.07386576		0.00000000		-0.00000000		 0.00007480	
Mg		0.00000000		1.81461189		1.26743291		0.00000000		0.00000000		-0.00007480	
Mg		0.00000000		0.00000000		11.67064949		0.00000000		0.00000000		0.00000000	
