# total energy = -7715.23966394 eV	

CRYSTAL	
PRIMVEC	
		4.89062076		0.00000000		0.00000000	
		0.00000000		4.44601931		0.00000000	
		0.00000000		0.00000000		4.44601931	
PRIMCOORD
   8 1	
Ca		0.00000000		0.00000000		0.00000000		0.00000000		0.00000000		0.00000000	
Mg		0.00000000		2.22300966		2.22300966		0.00000000		0.00000000		0.00000000	
Mg		2.44531087		0.00000000		2.22300966		0.00000000		0.00000000		0.00000000	
Mg		2.44531087		2.22300966		0.00000000		0.00000000		0.00000000		0.00000000	
O		0.00000000		0.00000000		2.22300966		0.00000000		0.00000000		0.00000000	
O		2.44531087		0.00000000		0.00000000		0.00000000		0.00000000		0.00000000	
O		0.00000000		2.22300966		0.00000000		0.00000000		0.00000000		0.00000000	
O		2.44531087		2.22300966		2.22300966		0.00000000		0.00000000		0.00000000	
