# total energy = -7715.4376336 eV	

CRYSTAL	
PRIMVEC	
		4.11256782		0.00000000		0.00000000	
		0.00000000		4.44601893		0.00000000	
		0.00000000		0.00000000		4.44601893	
PRIMCOORD
   8 1	
Ca		0.00000000		0.00000000		0.00000000		0.00000000		0.00000000		0.00000000	
Mg		0.00000000		2.22300987		2.22300987		0.00000000		0.00000000		0.00000000	
Mg		2.05628391		0.00000000		2.22300987		0.00000000		0.00000000		0.00000000	
Mg		2.05628391		2.22300987		0.00000000		0.00000000		0.00000000		0.00000000	
O		0.00000000		0.00000000		2.22300987		0.00000000		0.00000000		0.00000000	
O		2.05628391		0.00000000		0.00000000		0.00000000		0.00000000		0.00000000	
O		0.00000000		2.22300987		0.00000000		0.00000000		0.00000000		0.00000000	
O		2.05628391		2.22300987		2.22300987		0.00000000		0.00000000		0.00000000	
