# total energy = -22469.7013355 eV

CRYSTAL
PRIMVEC
		9.73970004		0.00000000		0.00000000
		0.00000000		8.69446466		0.00000000
		-1.43536881		0.00000000		5.05028771
PRIMECORD
   40 1
Mg		-0.35884269		7.89526967		1.26257095		0.00000000		-0.00059484		-0.00000002
Mg		-1.07652807		0.79919498		3.78771188		-0.00000000		 0.00059484		 0.00000002
Mg		4.51100733		3.54803734		1.26257095		0.00000000		-0.00058319		 0.00000001
Mg		3.79332195		5.14642828		3.78771188		-0.00000000		 0.00058319		-0.00000001
Ca		-0.35884269		2.62120749		1.26257095		 0.00000002		-0.00002776		-0.00000001
Ca		-1.07652807		6.07325814		3.78771188		-0.00000002		 0.00002776		 0.00000001
Ca		4.51100733		6.96843982		1.26257095		-0.00000001		-0.00004626		 0.00000003
Ca		3.79332195		1.72602484		3.78771188		 0.00000001		 0.00004626		-0.00000003
Si		2.45818828		0.81023688		1.15833279		 0.00021505		-0.00001979		-0.00007831
Si		5.84614100		7.88422777		3.89195005		-0.00021505		 0.00001979		 0.00007831
Si		6.56382638		0.81023688		1.36680912		-0.00021491		-0.00001987		 0.00007839
Si		1.74050290		7.88422777		3.68347372		 0.00021491		 0.00001987		-0.00007839
Si		7.32803928		5.15747018		1.15833279		-0.00001641		-0.00015532		-0.00017610
Si		0.97629098		3.53699545		3.89195005		 0.00001641		 0.00015532		 0.00017610
Si		1.69397636		5.15747018		1.36680912		 0.00001647		-0.00015537		 0.00017613
Si		6.61035293		3.53699545		3.68347372		-0.00001647		 0.00015537		-0.00017613
O		0.92170288		0.75554944		0.71643286		 0.00003926		-0.00005837		 0.00037349
O		7.38262640		7.93891619		4.33384998		-0.00003926		 0.00005837		-0.00037349
O		8.10031081		0.75554944		1.80870807		-0.00003934		-0.00005837		-0.00037356
O		0.20401847		7.93891619		3.24157476		 0.00003934		 0.00005837		 0.00037356
O		5.79155387		5.10278177		0.71643286		 0.00018693		-0.00004121		 0.00041979
O		2.51277638		3.59168386		4.33384998		-0.00018693		 0.00004121		-0.00041979
O		3.23046079		5.10278177		1.80870807		-0.00018694		-0.00004120		-0.00041983
O		5.07386849		3.59168386		3.24157476		 0.00018694		 0.00004120		 0.00041983
O		3.05934400		2.17526753		1.60477824		 0.00005011		 0.00015941		-0.00001571
O		5.24498528		6.51919713		3.44550460		-0.00005011		-0.00015941		 0.00001571
O		5.96267066		2.17526753		0.92036367		-0.00005013		 0.00015948		 0.00001569
O		2.34165764		6.51919713		4.12991917		 0.00005013		-0.00015948		-0.00001569
O		7.92919402		6.52250083		1.60477824		 0.00013398		 0.00029621		 0.00002770
O		0.37513526		2.17196382		3.44550460		-0.00013398		-0.00029621		-0.00002770
O		1.09282064		6.52250083		0.92036367		-0.00013397		 0.00029621		-0.00002774
O		7.21150767		2.17196382		4.12991917		 0.00013397		-0.00029621		 0.00002774
O		1.98719392		0.15163057		5.02720267		-0.00029160		 0.00020208		-0.00036244
O		6.31713633		8.54283408		0.02308017		 0.00029160		-0.00020208		 0.00036244
O		5.59944998		0.15163057		2.54822110		 0.00029154		 0.00020213		 0.00036249
O		2.70487930		8.54283408		2.50206174		-0.00029154		-0.00020213		-0.00036249
O		6.85704394		4.49886387		5.02720267		-0.00025551		 0.00020697		-0.00034905
O		1.44728534		4.19560078		0.02308017		 0.00025551		-0.00020697		 0.00034905
O		0.72959996		4.49886387		2.54822110		 0.00025547		 0.00020702		 0.00034911
O		7.57472933		4.19560078		2.50206174		-0.00025547		-0.00020702		-0.00034911
