# total energy = -22468.0327442 eV

CRYSTAL
PRIMVEC
		9.73970004		0.00000000		0.00000000
		0.00000000		8.24859093		0.00000000
		-1.43536881		0.00000000		5.05028771
PRIMECORD
   40 1
Mg		-0.35884269		7.49038450		1.26257095		-0.00000004		-0.00057742		-0.00000012
Mg		-1.07652807		0.75821130		3.78771188		 0.00000004		 0.00057742		 0.00000012
Mg		4.51100733		3.36608709		1.26257095		 0.00000015		-0.00057654		-0.00000028
Mg		3.79332195		4.88250871		3.78771188		-0.00000015		 0.00057654		 0.00000028
Ca		-0.35884269		2.48678599		1.26257095		-0.00000026		 0.00079947		-0.00000062
Ca		-1.07652807		5.76180883		3.78771188		 0.00000026		-0.00079947		 0.00000062
Ca		4.51100733		6.61108438		1.26257095		-0.00000015		 0.00079814		-0.00000049
Ca		3.79332195		1.63751142		3.78771188		 0.00000015		-0.00079814		 0.00000049
Si		2.45818828		0.76868732		1.15833279		-0.00006291		-0.00005833		 0.00016957
Si		5.84614100		7.47990945		3.89195005		 0.00006291		 0.00005833		-0.00016957
Si		6.56382638		0.76868732		1.36680912		 0.00005855		-0.00005393		-0.00017256
Si		1.74050290		7.47990945		3.68347372		-0.00005855		 0.00005393		 0.00017256
Si		7.32803928		4.89298376		1.15833279		-0.00008706		-0.00007182		 0.00015872
Si		0.97629098		3.35561106		3.89195005		 0.00008706		 0.00007182		-0.00015872
Si		1.69397636		4.89298376		1.36680912		 0.00007784		-0.00006402		-0.00016445
Si		6.61035293		3.35561106		3.68347372		-0.00007784		 0.00006402		 0.00016445
O		0.92170288		0.71680296		0.71643286		-0.00039164		-0.00074860		 0.00065672
O		7.38262640		7.53179186		4.33384998		 0.00039164		 0.00074860		-0.00065672
O		8.10031081		0.71680296		1.80870807		 0.00039468		-0.00074925		-0.00065563
O		0.20401847		7.53179186		3.24157476		-0.00039468		 0.00074925		 0.00065563
O		5.79155387		4.84110135		0.71643286		-0.00037620		-0.00074742		 0.00066181
O		2.51277638		3.40749542		4.33384998		 0.00037620		 0.00074742		-0.00066181
O		3.23046079		4.84110135		1.80870807		 0.00038230		-0.00074809		-0.00065953
O		5.07386849		3.40749542		3.24157476		-0.00038230		 0.00074809		 0.00065953
O		3.05934400		2.06371582		1.60477824		 0.00057795		 0.00092500		-0.00030096
O		5.24498528		6.18487900		3.44550460		-0.00057795		-0.00092500		 0.00030096
O		5.96267066		2.06371582		0.92036367		-0.00057642		 0.00092118		 0.00030238
O		2.34165764		6.18487900		4.12991917		 0.00057642		-0.00092118		-0.00030238
O		7.92919402		6.18801421		1.60477824		 0.00058668		 0.00093966		-0.00029600
O		0.37513526		2.06058159		3.44550460		-0.00058668		-0.00093966		 0.00029600
O		1.09282064		6.18801421		0.92036367		-0.00058340		 0.00093208		 0.00029852
O		7.21150767		2.06058159		4.12991917		 0.00058340		-0.00093208		-0.00029852
O		1.98719392		0.14385634		5.02720267		-0.00042199		 0.00064184		-0.00036987
O		6.31713633		8.10474043		0.02308017		 0.00042199		-0.00064184		 0.00036987
O		5.59944998		0.14385634		2.54822110		 0.00042184		 0.00064141		 0.00037003
O		2.70487930		8.10474043		2.50206174		-0.00042184		-0.00064141		-0.00037003
O		6.85704394		4.26815278		5.02720267		-0.00041875		 0.00064245		-0.00036885
O		1.44728534		3.98044204		0.02308017		 0.00041875		-0.00064245		 0.00036885
O		0.72959996		4.26815278		2.54822110		 0.00041847		 0.00064203		 0.00036891
O		7.57472933		3.98044204		2.50206174		-0.00041847		-0.00064203		-0.00036891
