# total energy = -20638.3151027 eV

CRYSTAL
PRIMVEC
		9.93860108		0.00000000		-0.00017342
		0.00000000		5.86711641		0.00000000
		-0.00008161		0.00000000		4.70867492
PRIMECORD
   28 1
Mg		0.00000000		0.00000000		0.00000000		-0.00000056		 0.00000008		 0.00000012
Mg		4.96925973		0.00000000		2.35424973		 0.00000062		-0.00000022		-0.00000000
Mg		0.00000000		2.93355617		0.00000000		-0.00000052		-0.00000011		 0.00000012
Mg		4.96925973		2.93355617		2.35424973		 0.00000064		 0.00000017		-0.00000001
Mg		2.73500001		1.46677808		4.65847888		 0.00018033		-0.00000030		-0.00017345
Mg		7.20351946		4.40033425		0.05002057		-0.00018023		 0.00000026		 0.00017347
Mg		2.23368641		4.40033425		2.30405165		 0.00006322		 0.00000024		-0.00012236
Mg		7.70483306		1.46677808		2.40444679		-0.00006332		-0.00000034		 0.00012200
Si		0.93891327		1.46677808		2.00376193		-0.00010353		-0.00000009		-0.00011021
Si		8.99960619		4.40033425		2.70473650		 0.00010291		-0.00000004		 0.00010922
Si		4.03022812		4.40033425		4.35803104		 0.00008631		 0.00000005		-0.00011625
Si		5.90829134		1.46677808		0.35046739		-0.00008547		-0.00000017		 0.00011679
O		0.90857734		1.46677808		3.61435949		 0.00048589		 0.00000010		-0.00021320
O		9.02994213		4.40033425		1.09413997		-0.00048486		-0.00000017		 0.00021354
O		4.06042634		4.40033425		1.25998020		-0.00047393		-0.00000010		-0.00021421
O		5.87809211		1.46677808		3.44851925		 0.00047279		 0.00000006		 0.00021378
O		4.40825667		1.46677808		1.05265899		-0.00017089		-0.00000005		-0.00009862
O		5.53026280		4.40033425		3.65583944		 0.00017088		-0.00000002		 0.00009892
O		0.56096430		4.40033425		3.40720354		 0.00018764		-0.00000005		-0.00010978
O		9.37755516		1.46677808		1.30129489		-0.00018740		-0.00000003		 0.00010994
O		1.64039486		0.17231201		1.28244473		 0.00008367		-0.00005128		 0.00008881
O		8.29812461		5.69480134		3.42605473		-0.00008300		 0.00005193		-0.00008869
O		3.32867819		5.69481562		3.63673526		-0.00007830		 0.00005945		 0.00009050
O		6.60984128		0.17229671		1.07176317		 0.00007748		-0.00005950		-0.00009050
O		8.29812359		3.10586818		3.42605473		-0.00008341		-0.00005110		-0.00008866
O		1.64039486		2.76124415		1.28244473		 0.00008399		 0.00005084		 0.00008877
O		6.60984128		2.76125946		1.07176419		 0.00007753		 0.00005961		-0.00009040
O		3.32867819		3.10585288		3.63673526		-0.00007846		-0.00005921		 0.00009039
