# total energy = -20638.5560636 eV

CRYSTAL
PRIMVEC
		10.01030679		0.00000000		0.00001020
		0.00000000		5.89775125		0.00000000
		0.00000000		0.00000000		4.72601732
PRIMECORD
   28 1
Mg		0.00000000		0.00000000		0.00000000		 0.00000022		-0.00000004		 0.00000001
Mg		5.00515849		0.00000000		2.36301580		-0.00000026		 0.00000004		 0.00000002
Mg		0.00000000		2.94887562		0.00000000		 0.00000021		 0.00000004		0.00000000
Mg		5.00515849		2.94887562		2.36301580		-0.00000026		-0.00000006		-0.00000000
Mg		2.75614345		1.47443730		4.68490258		 0.00039719		 0.00000005		-0.00082200
Mg		7.25417252		4.42331293		0.04113004		-0.00039728		-0.00000005		 0.00082197
Mg		2.24885692		4.42331293		2.32186127		-0.00044279		-0.00000002		-0.00082412
Mg		7.76145905		1.47443730		2.40417033		 0.00044285		 0.00000001		 0.00082416
Si		0.94398235		1.47443730		2.01469478		-0.00007427		 0.00000006		-0.00055426
Si		9.06633361		4.42331293		2.71133682		 0.00007440		-0.00000008		 0.00055460
Si		4.06120470		4.42331293		4.37769936		 0.00007940		-0.00000004		-0.00055646
Si		5.94911127		1.47443730		0.34833326		-0.00007961		 0.00000004		 0.00055610
O		0.91897462		1.47443730		3.62922499		-0.00053897		-0.00000008		 0.00007864
O		9.09134135		4.42331293		1.09680661		 0.00053833		 0.00000006		-0.00007872
O		4.08621142		4.42331293		1.26621123		 0.00051032		 0.00000004		 0.00007658
O		5.92410455		1.47443730		3.45982139		-0.00050971		-0.00000004		-0.00007628
O		4.44725972		1.47443730		1.05427184		 0.00009213		 0.00000001		 0.00020245
O		5.56305625		4.42331293		3.67176078		-0.00009175		-0.00000001		-0.00020248
O		0.55788042		4.42331293		3.41724173		-0.00010193		 0.00000002		 0.00022053
O		9.45243555		1.47443730		1.30879089		 0.00010170		-0.00000002		-0.00022041
O		1.64795512		0.17624364		1.29651655		-0.00010648		 0.00020215		-0.00055518
O		8.36236085		5.72150761		3.42951505		 0.00010622		-0.00020237		 0.00055511
O		3.35721868		5.72152087		3.65953847		 0.00008363		-0.00020727		-0.00055454
O		6.65309729		0.17622935		1.06649313		-0.00008337		 0.00020738		 0.00055444
O		8.36236085		3.12511824		3.42951505		 0.00010600		 0.00020216		 0.00055513
O		1.64795512		2.77263199		1.29651655		-0.00010623		-0.00020187		-0.00055520
O		6.65309729		2.77264525		1.06649313		-0.00008344		-0.00020738		 0.00055448
O		3.35721868		3.12510498		3.65953950		 0.00008374		 0.00020727		-0.00055457
