# total energy = -20638.3497034 eV

CRYSTAL
PRIMVEC
		10.59530663		0.00000000		0.00032645
		0.00000000		6.15956023		0.00000000
		0.00015302		0.00000000		4.86446065
PRIMECORD
   28 1
Mg		0.00000000		0.00000000		0.00000000		-0.00000001		 0.00000001		 0.00000007
Mg		5.29772881		0.00000000		2.43239559		-0.00000004		-0.00000003		-0.00000002
Mg		0.00000000		3.07978113		0.00000000		-0.00000004		-0.00000001		 0.00000004
Mg		5.29772881		3.07978113		2.43239559		-0.00000002		 0.00000002		-0.00000000
Mg		2.95149841		1.53989057		4.83579979		-0.00019079		 0.00011568		 0.00026973
Mg		7.64395819		4.61967272		0.02899241		 0.00019082		-0.00011568		-0.00026975
Mg		2.34747803		4.61967272		2.40328689		-0.00020675		-0.00011223		 0.00026432
Mg		8.24797856		1.53989057		2.46150531		 0.00020675		 0.00011224		-0.00026438
Si		0.98663853		1.53989057		2.06466639		-0.00009089		 0.00000048		 0.00007470
Si		9.60881704		4.61967170		2.80012479		 0.00009066		-0.00000048		-0.00007483
Si		4.31121269		4.61967272		4.49701811		 0.00009701		-0.00000047		 0.00006775
Si		6.28424390		1.53989057		0.36777409		-0.00009673		 0.00000049		-0.00006763
O		0.96439538		1.53989057		3.70685771		 0.00004163		 0.00001545		-0.00028466
O		9.63106020		4.61967170		1.15793244		-0.00004156		-0.00001545		 0.00028487
O		4.33339668		4.61967272		1.27475083		-0.00000905		-0.00001545		-0.00028775
O		6.26205991		1.53989057		3.59004137		 0.00000900		 0.00001543		 0.00028768
O		4.76168451		1.53989057		1.08327036		-0.00006309		 0.00001543		-0.00010871
O		5.83377209		4.61967272		3.78152183		 0.00006281		-0.00001539		 0.00010873
O		0.53605450		4.61967272		3.51530686		 0.00011602		-0.00001549		-0.00011922
O		10.05940107		1.53989057		1.34948431		-0.00011580		 0.00001551		 0.00011926
O		1.70845764		0.21952414		1.35740163		 0.00027094		 0.00008964		 0.00036390
O		8.88699793		5.94003813		3.50739057		-0.00027084		-0.00008982		-0.00036390
O		3.58954966		5.94001467		3.78968602		-0.00020086		-0.00007892		 0.00036850
O		7.00590693		0.21954862		1.07510618		 0.00020082		 0.00007900		-0.00036859
O		8.88699793		3.29930527		3.50739057		-0.00027047		 0.00006709		-0.00036381
O		1.70845764		2.86025700		1.35740163		 0.00027057		-0.00006690		 0.00036379
O		7.00590591		2.86023353		1.07510618		 0.00020064		-0.00005624		-0.00036852
O		3.58955068		3.29932976		3.78968602		-0.00020075		 0.00005611		 0.00036842
