# total energy = -24716.0879532 eV	

CRYSTAL	
PRIMVEC	
		9.92302502		0.00000000		0.00000000	
		0.00000000		8.73899975		0.00000000	
		1.65477358		0.00000000		4.94514944	
PRIMCOORD
   40 1	
Si		2.41644513		3.58299000		0.99397453		 0.00015690		-0.00007653		 0.00051896	
Si		9.16135446		5.15600975		3.95117193		-0.00015690		 0.00007653		-0.00051896	
Si		3.37245516		7.95248987		1.47859920		-0.00015690		-0.00007653		-0.00051896	
Si		8.20534343		0.78650988		3.46654826		 0.00015690		 0.00007653		 0.00051896	
Si		8.33396668		3.58299000		1.47859920		-0.00016200		 0.00015253		-0.00063631	
Si		3.24383092		5.15600975		3.46654826		 0.00016200		-0.00015253		 0.00063631	
Si		7.37795665		7.95248987		0.99397453		 0.00016200		 0.00015253		 0.00063631	
Si		4.19984096		0.78650988		3.95117193		-0.00016200		-0.00015253		-0.00063631	
O		4.13468737		3.67038009		0.49451494		-0.00059700		 0.00003396		-0.00043774	
O		7.44311123		5.06862065		4.45063152		 0.00059700		-0.00003396		 0.00043774	
O		1.65421193		8.03987997		1.97805878		 0.00059700		 0.00003396		 0.00043774	
O		9.92358567		0.69911978		2.96708768		-0.00059700		-0.00003396		-0.00043774	
O		8.81675558		2.18475043		0.78627768		-0.00053924		-0.00033348		 0.00023629	
O		2.76104202		6.55425031		4.15886878		 0.00053924		 0.00033348		-0.00023629	
O		6.89516774		6.55425031		1.68629506		 0.00053924		-0.00033348		-0.00023629	
O		4.68262986		2.18475043		3.25885240		-0.00053924		 0.00033348		 0.00023629	
O		3.06048815		4.28210978		4.69788949		-0.00026884		 0.00007734		 0.00074290	
O		8.51731044		4.45688997		0.24725698		 0.00026884		-0.00007734		-0.00074290	
O		4.38318373		8.65160965		2.71983070		 0.00026884		 0.00007734		-0.00074290	
O		7.19461388		0.08739010		2.22531576		-0.00026884		-0.00007734		 0.00074290	
O		9.34469723		4.28210978		2.71983070		 0.00006772		-0.00007727		-0.00076597	
O		2.23310236		4.45688997		2.22531576		-0.00006772		 0.00007727		 0.00076597	
O		8.02199967		8.65160965		4.69788949		-0.00006772		-0.00007727		 0.00076597	
O		3.55579694		0.08739010		0.24725698		 0.00006772		 0.00007727		-0.00076597	
O		1.93365523		2.18475043		1.68629506		-0.00075821		 0.00006086		-0.00001757	
O		9.64414336		6.55425031		3.25885240		 0.00075821		-0.00006086		 0.00001757	
O		3.85524407		6.55425031		0.78627768		 0.00075821		 0.00006086		 0.00001757	
O		7.72255354		2.18475043		4.15886779		-0.00075821		-0.00006086		-0.00001757	
O		6.61572444		3.67038009		1.97805878		 0.00022733		 0.00019047		 0.00017071	
O		4.96207415		5.06862065		2.96708768		-0.00022733		-0.00019047		-0.00017071	
O		9.09619888		8.03987997		0.49451494		-0.00022733		 0.00019047		-0.00017071	
O		2.48159773		0.69911978		4.45063152		 0.00022733		-0.00019047		 0.00017071	
Mg		0.41369290		0.79524909		1.23628686		-0.00010729		-0.00058746		-0.00005668	
Mg		1.24107969		7.94375066		3.70885960		 0.00010729		 0.00058746		 0.00005668	
Mg		5.37520640		5.16474896		1.23628686		 0.00010729		-0.00058746		 0.00005668	
Mg		6.20259219		3.57425079		3.70885960		-0.00010729		 0.00058746		-0.00005668	
Mg		0.33095472		6.02990973		0.98902890		 0.00033175		-0.00053477		 0.00002220	
Mg		1.32381886		2.70909002		3.95611658		-0.00033175		 0.00053477		-0.00002220	
Mg		5.45794359		1.66040985		1.48354384		-0.00033175		-0.00053477		-0.00002220	
Mg		6.11985401		7.07858990		3.46160262		 0.00033175		 0.00053477		 0.00002220	
