# total energy = -24715.2047087 eV	

CRYSTAL	
PRIMVEC	
		10.64909953		0.00000000		0.00000000	
		0.00000000		8.73900249		0.00000000	
		1.77585449		0.00000000		4.94514365	
PRIMCOORD
   40 1	
Si		2.59325807		3.58298964		0.99397524		 0.00014955		-0.00074997		-0.00019065	
Si		9.83169701		5.15600966		3.95117161		-0.00014955		 0.00074997		 0.00019065	
Si		3.61922000		7.95248982		1.47859872		-0.00014955		-0.00074997		 0.00019065	
Si		8.80573401		0.78650948		3.46654812		 0.00014955		 0.00074997		-0.00019065	
Si		8.94376870		3.58298964		1.47859872		-0.00019004		-0.00026075		 0.00008605	
Si		3.48118531		5.15600966		3.46654812		 0.00019004		 0.00026075		-0.00008605	
Si		7.91780677		7.95248982		0.99397524		 0.00019004		-0.00026075		-0.00008605	
Si		4.50714725		0.78650948		3.95117161		-0.00019004		 0.00026075		 0.00008605	
O		4.43722526		3.67037934		0.49451543		 0.00000763		 0.00002958		 0.00035871	
O		7.98772876		5.06862102		4.45063141		-0.00000763		-0.00002958		-0.00035871	
O		1.77525175		8.03987953		1.97805852		-0.00000763		 0.00002958		-0.00035871	
O		10.64970120		0.69911977		2.96708832		 0.00000763		-0.00002958		 0.00035871	
O		9.46188467		2.18475009		0.78627839		 0.00031585		 0.00064054		 0.00038098	
O		2.96306935		6.55424921		4.15886845		-0.00031585		-0.00064054		-0.00038098	
O		7.39969187		6.55424921		1.68629449		-0.00031585		 0.00064054		-0.00038098	
O		5.02526215		2.18475009		3.25885235		 0.00031585		-0.00064054		 0.00038098	
O		3.28442616		4.28210941		4.69788859		-0.00044569		-0.00066012		 0.00063394	
O		9.14052786		4.45688989		0.24725718		 0.00044569		 0.00066012		-0.00063394	
O		4.70390427		8.65160959		2.71983114		 0.00044569		-0.00066012		-0.00063394	
O		7.72104868		0.08738971		2.22531571		-0.00044569		 0.00066012		 0.00063394	
O		10.02845404		4.28210941		2.71983114		 0.00036464		-0.00010222		-0.00022642	
O		2.39649892		4.45688989		2.22531571		-0.00036464		 0.00010222		 0.00022642	
O		8.60897592		8.65160959		4.69788859		-0.00036464		-0.00010222		 0.00022642	
O		3.81597809		0.08738971		0.24725718		 0.00036464		 0.00010222		-0.00022642	
O		2.07514210		2.18475009		1.68629449		 0.00007881		-0.00009385		-0.00038823	
O		10.34981191		6.55424921		3.25885235		-0.00007881		 0.00009385		 0.00038823	
O		4.13733490		6.55424921		0.78627839		-0.00007881		-0.00009385		 0.00038823	
O		8.28761911		2.18475009		4.15886738		 0.00007881		 0.00009385		-0.00038823	
O		7.09980151		3.67037934		1.97805852		-0.00003945		 0.00051562		 0.00015641	
O		5.32515250		5.06862102		2.96708832		 0.00003945		-0.00051562		-0.00015641	
O		9.76177503		8.03987953		0.49451543		 0.00003945		 0.00051562		-0.00015641	
O		2.66317899		0.69911977		4.45063141		-0.00003945		-0.00051562		 0.00015641	
Mg		0.44396415		0.79524920		1.23628698		-0.00022632		 0.00011840		-0.00051269	
Mg		1.33189140		7.94375117		3.70885986		 0.00022632		-0.00011840		 0.00051269	
Mg		5.76851285		5.16474831		1.23628698		 0.00022632		 0.00011840		 0.00051269	
Mg		6.65644116		3.57425099		3.70885986		-0.00022632		-0.00011840		-0.00051269	
Mg		0.35517090		6.02990991		0.98902873		-0.00025184		-0.00001762		 0.00029312	
Mg		1.42068252		2.70908939		3.95611705		 0.00025184		 0.00001762		-0.00029312	
Mg		5.85730611		1.66040973		1.48354416		 0.00025184		-0.00001762		-0.00029312	
Mg		6.56764791		7.07858957		3.46160268		-0.00025184		 0.00001762		 0.00029312	
