# total energy = -24712.6362888 eV	

CRYSTAL	
PRIMVEC	
		8.71289995		0.00000000		0.00000000	
		0.00000000		8.73900380		0.00000000	
		1.45297191		0.00000000		4.94514577	
PRIMCOORD
   40 1	
Si		2.12175581		3.58299016		0.99397460		 0.00036845		 0.00003535		 0.00003985	
Si		8.04411518		5.15601015		3.95117205		-0.00036845		-0.00003535		-0.00003985	
Si		2.96118012		7.95249032		1.47859916		-0.00036845		 0.00003535		-0.00003985	
Si		7.20469174		0.78650999		3.46654836		 0.00036845		-0.00003535		 0.00003985	
Si		7.31763009		3.58299016		1.47859916		-0.00040073		 0.00004524		-0.00016391	
Si		2.84824177		5.15601015		3.46654836		 0.00040073		-0.00004524		 0.00016391	
Si		6.47820579		7.95249032		0.99397460		 0.00040073		 0.00004524		 0.00016391	
Si		3.68766520		0.78650999		3.95117205		-0.00040073		-0.00004524		-0.00016391	
O		3.63045717		3.67037968		0.49451458		 0.00062090		 0.00035916		-0.00001513	
O		6.53541382		5.06862064		4.45063207		-0.00062090		-0.00035916		 0.00001513	
O		1.45247876		8.03987984		1.97805918		-0.00062090		 0.00035916		 0.00001513	
O		8.71339310		0.69911961		2.96708834		 0.00062090		-0.00035916		-0.00001513	
O		7.74154230		2.18475008		0.78627823		 0.00045262		 0.00006312		-0.00042856	
O		2.42432869		6.55425024		4.15886929		-0.00045262		-0.00006312		 0.00042856	
O		6.05429358		6.55425024		1.68629466		-0.00045262		 0.00006312		 0.00042856	
O		4.11157828		2.18475008		3.25885199		 0.00045262		-0.00006312		-0.00042856	
O		2.68725787		4.28210977		4.69788936		 0.00002955		-0.00002690		-0.00038074	
O		7.47861399		4.45688967		0.24725729		-0.00002955		 0.00002690		 0.00038074	
O		3.84864910		8.65160993		2.71983105		-0.00002955		-0.00002690		 0.00038074	
O		6.31722189		0.08739039		2.22531560		 0.00002955		 0.00002690		-0.00038074	
O		8.20509907		4.28210977		2.71983105		 0.00028163		 0.00005617		 0.00018962	
O		1.96077192		4.45688967		2.22531560		-0.00028163		-0.00005617		-0.00018962	
O		7.04370785		8.65160993		4.69788936		-0.00028163		 0.00005617		-0.00018962	
O		3.12216314		0.08739039		0.24725729		 0.00028163		-0.00005617		 0.00018962	
O		1.69784273		2.18475008		1.68629466		-0.00001592		-0.00028130		-0.00026235	
O		8.46802826		6.55425024		3.25885199		 0.00001592		 0.00028130		 0.00026235	
O		3.38509232		6.55425024		0.78627823		 0.00001592		-0.00028130		 0.00026235	
O		6.78077866		2.18475008		4.15886754		-0.00001592		 0.00028130		-0.00026235	
O		5.80892873		3.67037968		1.97805918		-0.00045647		 0.00011762		-0.00045102	
O		4.35694313		5.06862064		2.96708834		 0.00045647		-0.00011762		 0.00045102	
O		7.98690715		8.03987984		0.49451458		 0.00045647		 0.00011762		 0.00045102	
O		2.17896384		0.69911961		4.45063207		-0.00045647		-0.00011762		-0.00045102	
Mg		0.36324341		0.79524903		1.23628731		 0.00004643		-0.00033191		 0.00022843	
Mg		1.08972937		7.94375128		3.70886020		-0.00004643		 0.00033191		-0.00022843	
Mg		4.71969339		5.16474919		1.23628731		-0.00004643		-0.00033191		-0.00022843	
Mg		5.44617934		3.57425113		3.70886020		 0.00004643		 0.00033191		 0.00022843	
Mg		0.29059438		6.02990966		0.98902915		 0.00023275		-0.00013272		-0.00019398	
Mg		1.16237666		2.70908978		3.95611662		-0.00023275		 0.00013272		 0.00019398	
Mg		4.79234068		1.66041037		1.48354373		-0.00023275		-0.00013272		 0.00019398	
Mg		5.37353031		7.07858994		3.46160291		 0.00023275		 0.00013272		-0.00019398	
