# total energy = -22459.6326429 eV

CRYSTAL
PRIMVEC
		9.05300002		0.00000000		0.00000000
		0.00000000		7.67699834		0.00000000
		-0.52464851		0.00000000		5.19414066
PRIMECORD
   40 1
Ca		6.64561268		0.51819825		0.46799212		 0.00068767		 0.00030979		 0.00004790
Ca		1.88274336		7.15880280		4.72614582		-0.00068767		-0.00030979		-0.00004790
Ca		2.14506490		4.35669742		2.12907730		-0.00068767		 0.00030979		-0.00004790
Ca		6.38329114		3.32030273		3.06506064		 0.00068767		-0.00030979		 0.00004790
Mg		1.97928999		1.25979557		2.09427576		-0.00007606		-0.00061915		 0.00024321
Mg		6.54906696		6.41720368		3.09986128		 0.00007606		 0.00061915		-0.00024321
Mg		6.81138940		5.09829564		0.50279276		 0.00007606		-0.00061915		-0.00024321
Mg		1.71696845		2.57870360		4.69134518		-0.00007606		 0.00061915		 0.00024321
Si		4.38151984		1.27438176		2.40332798		 0.00035298		 0.00012138		 0.00053792
Si		4.14683711		6.40261839		2.79080996		-0.00035298		-0.00012138		-0.00053792
Si		4.40915865		5.11288183		0.19374144		-0.00035298		 0.00012138		-0.00053792
Si		4.11919830		2.56411831		5.00039559		 0.00035298		-0.00012138		 0.00053792
Si		0.14788438		6.55846126		1.36813644		-0.00083561		 0.00000667		 0.00019553
Si		8.38047347		1.11853889		3.82600241		 0.00083561		-0.00000667		-0.00019553
Si		8.64279501		2.71996118		1.22893298		 0.00083561		 0.00000667		-0.00019553
Si		-0.11443807		4.95703896		3.96520405		-0.00083561		-0.00000667		 0.00019553
O		3.50493414		1.29971568		0.58641803		 0.00026510		-0.00035807		-0.00025544
O		5.02342190		6.37728357		4.60771900		-0.00026510		 0.00035807		 0.00025544
O		5.28574434		5.13821575		2.01065139		-0.00026510		-0.00035807		 0.00025544
O		3.24261170		2.53878440		3.18348746		 0.00026510		 0.00035807		-0.00025544
O		3.49747718		3.70875881		0.44513782		 0.00005325		-0.00063986		 0.00028335
O		5.03087976		3.96824133		4.74900012		-0.00005325		 0.00063986		-0.00028335
O		5.29320220		7.54725889		2.15193070		-0.00005325		-0.00063986		-0.00028335
O		3.23515474		0.12974126		3.04220634		 0.00005325		 0.00063986		 0.00028335
O		5.43097891		2.25089628		1.38839343		 0.00046410		 0.00014472		 0.00092546
O		3.09737713		5.42610387		3.80574541		-0.00046410		-0.00014472		-0.00092546
O		3.35969867		6.08939726		1.20867599		-0.00046410		 0.00014472		-0.00092546
O		5.16865737		1.58760379		3.98546195		 0.00046410		-0.00014472		 0.00092546
O		1.17630971		2.69923343		1.12608909		 0.00062208		-0.00050350		-0.00050463
O		7.35204724		4.97776671		4.06804885		-0.00062208		 0.00050350		 0.00050463
O		7.61436878		6.53773260		1.47098033		-0.00062208		-0.00050350		 0.00050463
O		0.91398817		1.13926664		3.72315761		 0.00062208		 0.00050350		-0.00050463
O		0.85195973		0.22186459		1.02999784		-0.00024857		-0.00017311		 0.00029449
O		7.67639631		7.45513465		4.16414011		 0.00024857		 0.00017311		-0.00029449
O		7.93871785		4.06036557		1.56707068		 0.00024857		-0.00017311		-0.00029449
O		0.58963819		3.61663458		3.62706635		-0.00024857		 0.00017311		 0.00029449
O		0.94307183		5.44299314		0.36099290		-0.00039837		 0.00025730		-0.00013846
O		7.58528420		2.23400700		4.83314504		 0.00039837		-0.00025730		 0.00013846
O		7.84760574		1.60449307		2.23607562		 0.00039837		 0.00025730		 0.00013846
O		0.68075029		6.07250708		2.95806142		-0.00039837		-0.00025730		-0.00013846
