# total energy = -117602.797312 eV	

CRYSTAL	
PRIMVEC	
		10.58799967		0.00000000		0.00000000	
		0.00000000		14.09700041		0.00000000	
		-2.45393833		0.00000000		10.01375951	
PRIMCOORD
   156 1	
Si		8.18330189		0.01395604		0.74251948		-0.00039289		-0.00012582		 0.00013300	
Si		-0.04923632		14.08304331		9.27123792		 0.00039289		 0.00012582		-0.00013300	
Si		1.17773073		7.06245625		4.26435922		 0.00039289		-0.00012582		-0.00013300	
Si		6.95633484		7.03454416		5.74940029		-0.00039289		 0.00012582		 0.00013300	
Si		3.61492732		2.67335451		6.74506825		-0.00015188		 0.00013169		 0.00008700	
Si		4.51914037		11.42364484		3.26869126		 0.00015188		-0.00013169		-0.00008700	
Si		3.29217333		9.72185471		8.27557101		 0.00015188		 0.00013169		-0.00008700	
Si		4.84189437		4.37514464		1.73818744		-0.00015188		-0.00013169		 0.00008700	
Si		1.21183891		1.76917322		4.27337173		-0.00015614		-0.00012780		 0.00016915	
Si		6.92222666		12.32782613		5.74038673		 0.00015614		 0.00012780		-0.00016915	
Si		8.14919371		8.81767236		0.73350803		 0.00015614		-0.00012780		-0.00016915	
Si		-0.01512708		5.27932699		9.28025042		-0.00015614		 0.00012780		 0.00016915	
Si		6.86524205		1.73858343		5.73788372		-0.00020210		-0.00004041		-0.00007667	
Si		1.26882459		12.35841698		4.27587473		 0.00020210		 0.00004041		 0.00007667	
Si		0.04185754		8.78708257		9.28275342		 0.00020210		-0.00004041		 0.00007667	
Si		8.09220909		5.30991678		0.73100503		-0.00020210		 0.00004041		-0.00007667	
Mg		4.06703279		0.00000000		5.00687870		0.00000000		-0.00000000		-0.00000000	
Mg		5.29399984		7.04850020		0.00000000		0.00000000		-0.00000000		0.00000000	
Mg		4.39572559		2.46006772		3.56880388		-0.00030672		-0.00010709		 0.00040803	
Mg		3.73834104		11.63693268		6.44495458		 0.00030672		 0.00010709		-0.00040803	
Mg		4.96530809		9.50856793		1.43807588		 0.00030672		-0.00010709		-0.00040803	
Mg		3.16875854		4.58843248		8.57568257		-0.00030672		 0.00010709		 0.00040803	
Mg		5.29399984		0.00000000		0.00000000		0.00000000		0.00000000		0.00000000	
Mg		4.06703279		7.04850020		5.00687870		0.00000000		0.00000000		0.00000000	
Mg		6.19165257		0.03510240		2.93543291		 0.00030052		-0.00017970		 0.00019202	
Mg		1.94241301		14.06189907		7.07832554		-0.00030052		 0.00017970		-0.00019202	
Mg		3.16938006		7.08360048		2.07144579		-0.00030052		-0.00017970		-0.00019202	
Mg		4.96468552		7.01339781		7.94231267		 0.00030052		 0.00017970		 0.00019202	
Mg		0.42170944		0.00493401		1.52609710		-0.00007126		-0.00028408		 0.00008407	
Mg		7.71235825		14.09206534		8.48766135		 0.00007126		 0.00028408		-0.00008407	
Mg		8.93932424		7.05343421		3.48078160		 0.00007126		-0.00028408		-0.00008407	
Mg		-0.80525761		7.04356620		6.53297579		-0.00007126		 0.00028408		 0.00008407	
Mg		-0.86838750		0.00493401		6.35593279		 0.00017802		 0.00008063		 0.00041210	
Mg		9.00245519		14.09206534		3.65782566		-0.00017802		-0.00008063		-0.00041210	
Mg		7.77548814		7.05343421		8.66470435		-0.00017802		 0.00008063		-0.00041210	
Mg		0.35857849		7.04356620		1.34905410		 0.00017802		-0.00008063		 0.00041210	
Mg		3.19404057		0.03904854		2.15746375		 0.00011610		 0.00004139		 0.00001472	
Mg		4.94002607		14.05795081		7.85629470		-0.00011610		-0.00004139		-0.00001472	
Mg		6.16699311		7.08754875		2.84941494		-0.00011610		 0.00004139		-0.00001472	
Mg		1.96707352		7.00945060		7.16434351		 0.00011610		-0.00004139		 0.00001472	
Mg		6.57114024		2.39564398		1.23780069		 0.00010776		 0.00003106		-0.00001648	
Mg		1.56292640		11.70135537		8.77595776		-0.00010776		-0.00003106		 0.00001648	
Mg		2.78989239		9.44414419		3.76907907		-0.00010776		 0.00003106		 0.00001648	
Mg		5.34417319		4.65285622		6.24467939		 0.00010776		-0.00003106		-0.00001648	
Mg		-1.63791484		2.43920407		9.71044191		-0.00044837		 0.00015988		-0.00008690	
Mg		9.77198042		11.65779528		0.30331654		 0.00044837		-0.00015988		 0.00008690	
Mg		8.54501337		9.48770322		5.31019630		 0.00044837		 0.00015988		 0.00008690	
Mg		-0.41094780		4.60929613		4.70356321		-0.00044837		-0.00015988		-0.00008690	
Mg		0.46893509		2.49798759		7.53004561		 0.00008533		 0.00007584		 0.00010547	
Mg		7.66513154		11.59901070		2.48371285		-0.00008533		-0.00007584		-0.00010547	
Mg		6.43816449		9.54648885		7.49059154		-0.00008533		 0.00007584		-0.00010547	
Mg		1.69590108		4.55051050		2.52316691		 0.00008533		-0.00007584		 0.00010547	
Mg		6.00405545		2.48008540		8.96091317		 0.00004354		 0.00021638		-0.00014429	
Mg		2.13001119		11.61691501		1.05284633		-0.00004354		-0.00021638		 0.00014429	
Mg		0.90304414		9.52858560		6.05972609		-0.00004354		 0.00021638		 0.00014429	
Mg		7.23102249		4.56841481		3.95403236		 0.00004354		-0.00021638		-0.00014429	
Mg		3.60529224		2.37633041		0.45162054		 0.00000118		-0.00012087		 0.00017500	
Mg		4.52877334		11.72066894		9.56213897		-0.00000118		 0.00012087		-0.00017500	
Mg		5.75574038		9.42483062		4.55525922		-0.00000118		-0.00012087		-0.00017500	
Mg		2.37832519		4.67216873		5.45850029		 0.00000118		 0.00012087		 0.00017500	
Mg		9.40458318		2.50221643		1.99093464		 0.00013888		 0.00055755		 0.00041366	
Mg		-1.27051655		11.59478186		8.02282276		-0.00013888		-0.00055755		-0.00041366	
Mg		-0.04354950		9.55071770		3.01594406		-0.00013888		 0.00055755		-0.00041366	
Mg		8.17761719		4.54628165		6.99781439		 0.00013888		-0.00055755		 0.00041366	
O		3.63390525		1.06009382		6.70521290		-0.00029839		 0.00028018		 0.00021839	
O		4.50016138		13.03690447		3.30854555		 0.00029839		-0.00028018		-0.00021839	
O		3.27319539		8.10859508		8.31542425		 0.00029839		 0.00028018		-0.00021839	
O		4.86087230		5.98840532		1.69833421		-0.00029839		-0.00028018		 0.00021839	
O		5.72267194		1.22502944		4.61934732		-0.00017374		-0.00002981		-0.00012831	
O		2.41139469		12.87197096		5.39441219		 0.00017374		 0.00002981		 0.00012831	
O		3.63836068		8.27352859		0.38753349		 0.00017374		-0.00002981		 0.00012831	
O		4.49570490		5.82347076		9.62622708		-0.00017374		 0.00002981		-0.00012831	
O		6.88739955		3.38327989		5.73387828		-0.00013367		 0.00001662		 0.00009391	
O		1.24666708		10.71371946		4.27988017		 0.00013367		-0.00001662		-0.00009391	
O		0.01970003		10.43178009		9.28675992		 0.00013367		 0.00001662		-0.00009391	
O		8.11436554		3.66522032		0.72699853		-0.00013367		-0.00001662		 0.00009391	
O		6.50173167		1.20952332		7.29902922		-0.00010751		 0.00030100		 0.00001547	
O		1.63233497		12.88747709		2.71473029		 0.00010751		-0.00030100		-0.00001547	
O		0.40536792		8.25802246		7.72160899		 0.00010751		 0.00030100		-0.00001547	
O		7.72869871		5.83897794		2.29214946		-0.00010751		-0.00030100		 0.00001547	
O		1.23586097		3.41852310		4.25484590		 0.00003390		-0.00016791		 0.00002451	
O		6.89820461		10.67847625		5.75891255		-0.00003390		 0.00016791		-0.00002451	
O		8.12517166		10.46702225		0.75203279		-0.00003390		-0.00016791		-0.00002451	
O		0.00889392		3.62997710		9.26172566		 0.00003390		 0.00016791		 0.00002451	
O		2.73335141		1.23348714		3.84728627		-0.00005882		 0.00012791		-0.00003296	
O		5.40071417		12.86351221		6.16647324		 0.00005882		-0.00012791		 0.00003296	
O		6.62768122		8.28198628		1.15959349		 0.00005882		 0.00012791		 0.00003296	
O		1.50638648		5.81501201		8.85416496		-0.00005882		-0.00012791		-0.00003296	
O		0.80050677		1.22784903		5.82400228		-0.00019234		-0.00013252		 0.00012330	
O		7.33355880		12.86915032		4.18975723		 0.00019234		 0.00013252		-0.00012330	
O		6.10659175		8.27634923		9.19663593		 0.00019234		-0.00013252		-0.00012330	
O		2.02747382		5.82065117		0.81712252		-0.00019234		 0.00013252		 0.00012330	
O		0.07524997		1.24194589		3.17536334		-0.00016719		 0.00011139		 0.00004705	
O		8.05881560		12.85505346		6.83839617		 0.00016719		-0.00011139		-0.00004705	
O		9.28578265		8.29044610		1.83151642		 0.00016719		 0.00011139		-0.00004705	
O		-1.15171602		5.80655431		8.18224203		-0.00016719		-0.00011139		 0.00004705	
O		3.98348606		3.40160560		5.30028170		-0.00026044		 0.00005490		-0.00010437	
O		4.15057952		10.69539375		4.71347675		 0.00026044		-0.00005490		 0.00010437	
O		2.92361247		10.45010580		9.72035545		 0.00026044		 0.00005490		 0.00010437	
O		5.21045311		3.64689355		0.29340300		-0.00026044		-0.00005490		-0.00010437	
O		4.65489441		3.36354385		7.80572429		-0.00007734		 0.00021137		 0.00016439	
O		3.47917116		10.73345549		2.20803416		 0.00007734		-0.00021137		-0.00016439	
O		2.25220517		10.41204512		7.21491285		 0.00007734		 0.00021137		-0.00016439	
O		5.88186146		3.68495635		2.79884560		-0.00007734		-0.00021137		 0.00016439	
O		4.87379495		1.19965530		1.72336847		 0.00014292		 0.00033226		-0.00005532	
O		3.26027062		12.89734510		8.29039104		-0.00014292		-0.00033226		 0.00005532	
O		4.48723767		8.24815445		3.28351128		-0.00014292		 0.00033226		 0.00005532	
O		3.64682896		5.84884490		6.73024717		 0.00014292		-0.00033226		-0.00005532	
O		4.67919493		1.04881654		9.71134295		-0.00020350		 0.00014106		 0.00009619	
O		3.45487170		13.04818281		0.30241551		 0.00020350		-0.00014106		-0.00009619	
O		2.22790466		8.09731675		5.30929526		 0.00020350		 0.00014106		-0.00009619	
O		5.90616198		5.99968260		4.70446425		-0.00020350		-0.00014106		 0.00009619	
O		7.85626399		1.06714331		2.19501621		-0.00028098		-0.00007665		 0.00045877	
O		0.27780158		13.02985710		7.81874224		 0.00028098		 0.00007665		-0.00045877	
O		1.50476863		8.11564246		2.81186248		 0.00028098		-0.00007665		-0.00045877	
O		6.62929800		5.98135689		7.20189597		-0.00028098		 0.00007665		 0.00045877	
O		-1.10338921		1.00652595		8.23131000		 0.00035152		 0.00044092		-0.00034674	
O		9.23745584		13.09047339		1.78244845		-0.00035152		-0.00044092		 0.00034674	
O		8.01048880		8.05502616		6.78932821		-0.00035152		 0.00044092		 0.00034674	
O		0.12357784		6.04197425		3.22443130		 0.00035152		-0.00044092		-0.00034674	
O		9.65343718		1.12212044		0.27938449		-0.00024218		-0.00011046		 0.00018218	
O		-1.51937054		12.97487891		9.73437502		 0.00024218		 0.00011046		-0.00018218	
O		-0.29240349		8.17062064		4.72749527		 0.00024218		-0.00011046		-0.00018218	
O		8.42647013		5.92637870		5.28626318		-0.00024218		 0.00011046		 0.00018218	
O		1.35807613		1.03471968		8.85015952		-0.00018480		 0.00028980		-0.00006222	
O		6.77599050		13.06227967		1.16359787		 0.00018480		-0.00028980		 0.00006222	
O		5.54902345		8.08321988		6.17047763		 0.00018480		 0.00028980		 0.00006222	
O		2.58504318		6.01377947		3.84328083		-0.00018480		-0.00028980		-0.00006222	
O		2.03629998		1.02767125		0.71197839		 0.00039389		-0.00010194		 0.00022822	
O		6.09776666		13.06932810		9.30178112		-0.00039389		 0.00010194		-0.00022822	
O		7.32473264		8.07617039		4.29490136		-0.00039389		-0.00010194		-0.00022822	
O		0.80933293		6.02082896		5.71885815		 0.00039389		 0.00010194		 0.00022822	
O		2.21259335		3.37200155		7.16484326		-0.00013819		 0.00005117		 0.00012612	
O		5.92147434		10.72499780		2.84891413		 0.00013819		-0.00005117		-0.00012612	
O		4.69450729		10.42050175		7.85579389		 0.00013819		 0.00005117		-0.00012612	
O		3.43956040		3.67649760		2.15796457		-0.00013819		-0.00005117		 0.00012612	
O		8.35511654		1.20106351		5.29227187		-0.00009703		 0.00026237		 0.00026942	
O		-0.22104990		12.89593584		4.72148658		 0.00009703		-0.00026237		-0.00026942	
O		-1.44801695		8.24956477		9.72836633		 0.00009703		 0.00026237		-0.00026942	
O		9.58208359		5.84743458		0.28539212		-0.00009703		-0.00026237		 0.00026942	
O		-0.84821948		3.49182700		6.37776313		-0.00011426		 0.00018236		 0.00055211	
O		8.98228717		10.60517341		3.63599638		 0.00011426		-0.00018236		-0.00055211	
O		7.75532012		10.54032614		8.64287508		 0.00011426		 0.00018236		-0.00055211	
O		0.37874651		3.55667320		1.37088443		-0.00011426		-0.00018236		 0.00055211	
O		8.86703150		3.49746617		3.64400726		-0.00038705		-0.00043835		 0.00002710	
O		-0.73296592		10.59953424		6.36975225		 0.00038705		 0.00043835		-0.00002710	
O		0.49400112		10.54596531		1.36287249		 0.00038705		-0.00043835		-0.00002710	
O		7.64006445		3.55103509		8.65088596		-0.00038705		 0.00043835		 0.00002710	
H		-1.20765983		2.72072098		6.00825571		-0.00035194		 0.00027495		 0.00063841	
H		9.34172647		11.37627837		4.00550275		 0.00035194		-0.00027495		-0.00063841	
H		8.11475942		9.76922119		9.01238250		 0.00035194		 0.00027495		-0.00063841	
H		0.01930722		4.32777922		1.00137595		-0.00035194		-0.00027495		 0.00063841	
H		8.69894806		2.87578753		4.16572353		-0.00013973		 0.00070158		-0.00005425	
H		-0.56488143		11.22121182		5.84803492		 0.00013973		-0.00070158		 0.00005425	
H		0.66208562		9.92428774		0.84115622		 0.00013973		 0.00070158		 0.00005425	
H		7.47198101		4.17271161		9.17260223		-0.00013973		-0.00070158		-0.00005425	
