# total energy = -117601.401126 eV	

CRYSTAL	
PRIMVEC	
		10.58799967		0.00000000		0.00000000	
		0.00000000		14.09700041		0.00000000	
		-2.45393833		0.00000000		9.52528214	
PRIMCOORD
   156 1	
Si		8.18330189		0.01395604		0.70630005		 0.00002446		 0.00004596		 0.00004003	
Si		-0.04923632		14.08304331		8.81898316		-0.00002446		-0.00004596		-0.00004003	
Si		1.17773073		7.06245625		4.05634208		-0.00002446		 0.00004596		-0.00004003	
Si		6.95633484		7.03454416		5.46894112		 0.00002446		-0.00004596		 0.00004003	
Si		3.61492732		2.67335451		6.41603981		-0.00002781		 0.00001715		 0.00002160	
Si		4.51914037		11.42364484		3.10924340		 0.00002781		-0.00001715		-0.00002160	
Si		3.29217333		9.72185471		7.87188341		 0.00002781		 0.00001715		-0.00002160	
Si		4.84189437		4.37514464		1.65339874		-0.00002781		-0.00001715		 0.00002160	
Si		1.21183891		1.76917322		4.06491413		 0.00010784		 0.00015353		-0.00000612	
Si		6.92222666		12.32782613		5.46036802		-0.00010784		-0.00015353		 0.00000612	
Si		8.14919371		8.81767236		0.69772694		-0.00010784		 0.00015353		 0.00000612	
Si		-0.01512708		5.27932699		8.82755520		 0.00010784		-0.00015353		-0.00000612	
Si		6.86524205		1.73858343		5.45798677		-0.00031104		 0.00005533		-0.00020624	
Si		1.26882459		12.35841698		4.06729537		 0.00031104		-0.00005533		 0.00020624	
Si		0.04185754		8.78708257		8.82993644		 0.00031104		 0.00005533		 0.00020624	
Si		8.09220909		5.30991678		0.69534570		-0.00031104		-0.00005533		-0.00020624	
Mg		4.06703279		0.00000000		4.76264107		0.00000000		0.00000000		0.00000000	
Mg		5.29399984		7.04850020		0.00000000		0.00000000		0.00000000		0.00000000	
Mg		4.39572559		2.46006772		3.39471598		-0.00038324		-0.00014271		 0.00010312	
Mg		3.73834104		11.63693268		6.13056722		 0.00038324		 0.00014271		-0.00010312	
Mg		4.96530809		9.50856793		1.36792615		 0.00038324		-0.00014271		-0.00010312	
Mg		3.16875854		4.58843248		8.15735706		-0.00038324		 0.00014271		 0.00010312	
Mg		5.29399984		0.00000000		0.00000000		0.00000000		0.00000000		0.00000000	
Mg		4.06703279		7.04850020		4.76264107		0.00000000		0.00000000		0.00000000	
Mg		6.19165257		0.03510240		2.79224080		 0.00026481		-0.00006069		 0.00025577	
Mg		1.94241301		14.06189907		6.73304028		-0.00026481		 0.00006069		-0.00025577	
Mg		3.16938006		7.08360048		1.97040027		-0.00026481		-0.00006069		-0.00025577	
Mg		4.96468552		7.01339781		7.55488293		 0.00026481		 0.00006069		 0.00025577	
Mg		0.42170944		0.00493401		1.45165287		 0.00013497		-0.00016099		 0.00011834	
Mg		7.71235825		14.09206534		8.07362927		-0.00013497		 0.00016099		-0.00011834	
Mg		8.93932424		7.05343421		3.31098820		-0.00013497		-0.00016099		-0.00011834	
Mg		-0.80525761		7.04356620		6.21429500		 0.00013497		 0.00016099		 0.00011834	
Mg		-0.86838750		0.00493401		6.04588757		 0.00001796		 0.00022479		 0.00037007	
Mg		9.00245519		14.09206534		3.47939457		-0.00001796		-0.00022479		-0.00037007	
Mg		7.77548814		7.05343421		8.24203564		-0.00001796		 0.00022479		-0.00037007	
Mg		0.35857849		7.04356620		1.28324544		 0.00001796		-0.00022479		 0.00037007	
Mg		3.19404057		0.03904854		2.05222221		 0.00010993		-0.00003758		-0.00008801	
Mg		4.94002607		14.05795081		7.47306099		-0.00010993		 0.00003758		 0.00008801	
Mg		6.16699311		7.08754875		2.71041886		-0.00010993		-0.00003758		 0.00008801	
Mg		1.96707352		7.00945060		6.81486329		 0.00010993		 0.00003758		-0.00008801	
Mg		6.57114024		2.39564398		1.17741945		 0.00051756		 0.00000805		-0.00000919	
Mg		1.56292640		11.70135537		8.34786164		-0.00051756		-0.00000805		 0.00000919	
Mg		2.78989239		9.44414419		3.58522057		-0.00051756		 0.00000805		 0.00000919	
Mg		5.34417319		4.65285622		5.94006158		 0.00051756		-0.00000805		-0.00000919	
Mg		-1.63791484		2.43920407		9.23676127		-0.00008139		 0.00033332		-0.00004811	
Mg		9.77198042		11.65779528		0.28852087		 0.00008139		-0.00033332		 0.00004811	
Mg		8.54501337		9.48770322		5.05116195		 0.00008139		 0.00033332		 0.00004811	
Mg		-0.41094780		4.60929613		4.47412126		-0.00008139		-0.00033332		-0.00004811	
Mg		0.46893509		2.49798759		7.16272672		 0.00014778		 0.00002105		 0.00017012	
Mg		7.66513154		11.59901070		2.36255542		-0.00014778		-0.00002105		-0.00017012	
Mg		6.43816449		9.54648885		7.12519650		-0.00014778		 0.00002105		-0.00017012	
Mg		1.69590108		4.55051050		2.40008459		 0.00014778		-0.00002105		 0.00017012	
Mg		6.00405545		2.48008540		8.52379502		-0.00007501		 0.00001732		-0.00009568	
Mg		2.13001119		11.61691501		1.00148818		 0.00007501		-0.00001732		 0.00009568	
Mg		0.90304414		9.52858560		5.76412926		 0.00007501		 0.00001732		 0.00009568	
Mg		7.23102249		4.56841481		3.76115289		-0.00007501		-0.00001732		-0.00009568	
Mg		3.60529224		2.37633041		0.42959009		-0.00043099		-0.00013175		 0.00008058	
Mg		4.52877334		11.72066894		9.09569312		 0.00043099		 0.00013175		-0.00008058	
Mg		5.75574038		9.42483062		4.33305099		 0.00043099		-0.00013175		-0.00008058	
Mg		2.37832519		4.67216873		5.19223116		-0.00043099		 0.00013175		 0.00008058	
Mg		9.40458318		2.50221643		1.89381727		 0.00014026		-0.00007039		 0.00009138	
Mg		-1.27051655		11.59478186		7.63146594		-0.00014026		 0.00007039		-0.00009138	
Mg		-0.04354950		9.55071770		2.86882486		-0.00014026		-0.00007039		-0.00009138	
Mg		8.17761719		4.54628165		6.65645728		 0.00014026		 0.00007039		 0.00009138	
O		3.63390525		1.06009382		6.37812842		 0.00001534		-0.00006871		-0.00000994	
O		4.50016138		13.03690447		3.14715267		-0.00001534		 0.00006871		 0.00000994	
O		3.27319539		8.10859508		7.90979480		-0.00001534		-0.00006871		 0.00000994	
O		4.86087230		5.98840532		1.61548840		 0.00001534		 0.00006871		-0.00000994	
O		5.72267194		1.22502944		4.39401245		-0.00036032		-0.00034988		 0.00009670	
O		2.41139469		12.87197096		5.13126969		 0.00036032		 0.00034988		-0.00009670	
O		3.63836068		8.27352859		0.36862862		 0.00036032		-0.00034988		-0.00009670	
O		4.49570490		5.82347076		9.15665458		-0.00036032		 0.00034988		 0.00009670	
O		6.88739955		3.38327989		5.45417721		 0.00004041		 0.00018445		 0.00001461	
O		1.24666708		10.71371946		4.07110599		-0.00004041		-0.00018445		-0.00001461	
O		0.01970003		10.43178009		8.83374706		-0.00004041		 0.00018445		-0.00001461	
O		8.11436554		3.66522032		0.69153614		 0.00004041		-0.00018445		 0.00001461	
O		6.50173167		1.20952332		6.94297914		-0.00026464		 0.00009049		-0.00009265	
O		1.63233497		12.88747709		2.58230406		 0.00026464		-0.00009049		 0.00009265	
O		0.40536792		8.25802246		7.34494514		 0.00026464		 0.00009049		 0.00009265	
O		7.72869871		5.83897794		2.18033701		-0.00026464		-0.00009049		-0.00009265	
O		1.23586097		3.41852310		4.04729252		-0.00007790		 0.00021673		 0.00012670	
O		6.89820461		10.67847625		5.47798962		 0.00007790		-0.00021673		-0.00012670	
O		8.12517166		10.46702225		0.71534855		 0.00007790		 0.00021673		-0.00012670	
O		0.00889392		3.62997710		8.80993359		-0.00007790		-0.00021673		 0.00012670	
O		2.73335141		1.23348714		3.65961397		 0.00000884		 0.00003285		 0.00005380	
O		5.40071417		12.86351221		5.86566923		-0.00000884		-0.00003285		-0.00005380	
O		6.62768122		8.28198628		1.10302816		-0.00000884		 0.00003285		-0.00005380	
O		1.50638648		5.81501201		8.42225504		 0.00000884		-0.00003285		 0.00005380	
O		0.80050677		1.22784903		5.53990507		-0.00019722		 0.00005414		-0.00002665	
O		7.33355880		12.86915032		3.98537813		 0.00019722		-0.00005414		 0.00002665	
O		6.10659175		8.27634923		8.74801921		 0.00019722		 0.00005414		 0.00002665	
O		2.02747382		5.82065117		0.77726294		-0.00019722		-0.00005414		-0.00002665	
O		0.07524997		1.24194589		3.02046725		-0.00001035		-0.00022276		 0.00011341	
O		8.05881560		12.85505346		6.50481595		 0.00001035		 0.00022276		-0.00011341	
O		9.28578265		8.29044610		1.74217382		 0.00001035		-0.00022276		-0.00011341	
O		-1.15171602		5.80655431		7.78310727		-0.00001035		 0.00022276		 0.00011341	
O		3.98348606		3.40160560		5.04173227		 0.00003092		-0.00051146		-0.00018044	
O		4.15057952		10.69539375		4.48355093		-0.00003092		 0.00051146		 0.00018044	
O		2.92361247		10.45010580		9.24619200		-0.00003092		-0.00051146		 0.00018044	
O		5.21045311		3.64689355		0.27909120		 0.00003092		 0.00051146		-0.00018044	
O		4.65489441		3.36354385		7.42495759		 0.00030268		 0.00021152		-0.00021138	
O		3.47917116		10.73345549		2.10032455		-0.00030268		-0.00021152		 0.00021138	
O		2.25220517		10.41204512		6.86296563		-0.00030268		 0.00021152		 0.00021138	
O		5.88186146		3.68495635		2.66231652		 0.00030268		-0.00021152		-0.00021138	
O		4.87379495		1.19965530		1.63930081		-0.00002521		 0.00006953		 0.00028847	
O		3.26027062		12.89734510		7.88598133		 0.00002521		-0.00006953		-0.00028847	
O		4.48723767		8.24815445		3.12334026		 0.00002521		 0.00006953		-0.00028847	
O		3.64682896		5.84884490		6.40194294		-0.00002521		-0.00006953		 0.00028847	
O		4.67919493		1.04881654		9.23761890		-0.00004908		 0.00024383		 0.00026417	
O		3.45487170		13.04818281		0.28766430		 0.00004908		-0.00024383		-0.00026417	
O		2.22790466		8.09731675		5.05030432		 0.00004908		 0.00024383		-0.00026417	
O		5.90616198		5.99968260		4.47497783		-0.00004908		-0.00024383		 0.00026417	
O		7.85626399		1.06714331		2.08794189		-0.00003419		 0.00007123		 0.00008832	
O		0.27780158		13.02985710		7.43734026		 0.00003419		-0.00007123		-0.00008832	
O		1.50476863		8.11564246		2.67469918		 0.00003419		 0.00007123		-0.00008832	
O		6.62929800		5.98135689		6.85058402		-0.00003419		-0.00007123		 0.00008832	
O		-1.10338921		1.00652595		7.82978235		 0.00019225		 0.00016417		-0.00014598	
O		9.23745584		13.09047339		1.69549980		-0.00019225		-0.00016417		 0.00014598	
O		8.01048880		8.05502616		6.45814087		-0.00019225		 0.00016417		 0.00014598	
O		0.12357784		6.04197425		3.06714127		 0.00019225		-0.00016417		-0.00014598	
O		9.65343718		1.12212044		0.26575456		-0.00027153		-0.00023464		 0.00005887	
O		-1.51937054		12.97487891		9.25952759		 0.00027153		 0.00023464		-0.00005887	
O		-0.29240349		8.17062064		4.49688546		 0.00027153		-0.00023464		-0.00005887	
O		8.42647013		5.92637870		5.02839669		-0.00027153		 0.00023464		 0.00005887	
O		1.35807613		1.03471968		8.41844442		 0.00009671		 0.00033901		-0.00008227	
O		6.77599050		13.06227967		1.10683772		-0.00009671		-0.00033901		 0.00008227	
O		5.54902345		8.08321988		5.86947879		-0.00009671		 0.00033901		 0.00008227	
O		2.58504318		6.01377947		3.65580441		 0.00009671		-0.00033901		-0.00008227	
O		2.03629998		1.02767125		0.67724763		 0.00023004		 0.00002281		-0.00016330	
O		6.09776666		13.06932810		8.84803451		-0.00023004		-0.00002281		 0.00016330	
O		7.32473264		8.07617039		4.08539344		-0.00023004		 0.00002281		 0.00016330	
O		0.80933293		6.02082896		5.43988871		 0.00023004		-0.00002281		-0.00016330	
O		2.21259335		3.37200155		6.81533975		-0.00009513		 0.00036880		-0.00010810	
O		5.92147434		10.72499780		2.70994240		 0.00009513		-0.00036880		 0.00010810	
O		4.69450729		10.42050175		7.47258347		 0.00009513		 0.00036880		 0.00010810	
O		3.43956040		3.67649760		2.05269761		-0.00009513		-0.00036880		-0.00010810	
O		8.35511654		1.20106351		5.03411209		-0.00008014		-0.00005905		 0.00019658	
O		-0.22104990		12.89593584		4.49117111		 0.00008014		 0.00005905		-0.00019658	
O		-1.44801695		8.24956477		9.25381219		 0.00008014		-0.00005905		-0.00019658	
O		9.58208359		5.84743458		0.27147102		-0.00008014		 0.00005905		 0.00019658	
O		-0.84821948		3.49182700		6.06665276		-0.00003283		 0.00003829		-0.00007488	
O		8.98228717		10.60517341		3.45862939		 0.00003283		-0.00003829		 0.00007488	
O		7.75532012		10.54032614		8.22127152		 0.00003283		 0.00003829		 0.00007488	
O		0.37874651		3.55667320		1.30401063		-0.00003283		-0.00003829		-0.00007488	
O		8.86703150		3.49746617		3.46624957		 0.00007795		-0.00045897		 0.00007041	
O		-0.73296592		10.59953424		6.05903152		-0.00007795		 0.00045897		-0.00007041	
O		0.49400112		10.54596531		1.29639044		-0.00007795		-0.00045897		-0.00007041	
O		7.64006445		3.55103509		8.22889170		 0.00007795		 0.00045897		 0.00007041	
H		-1.20765983		2.72072098		5.71517035		-0.00012142		 0.00036050		 0.00076810	
H		9.34172647		11.37627837		3.81011286		 0.00012142		-0.00036050		-0.00076810	
H		8.11475942		9.76922119		8.57275393		 0.00012142		 0.00036050		-0.00076810	
H		0.01930722		4.32777922		0.95252927		-0.00012142		-0.00036050		 0.00076810	
H		8.69894806		2.87578753		3.96251758		 0.00012498		 0.00015599		-0.00032058	
H		-0.56488143		11.22121182		5.56276456		-0.00012498		-0.00015599		 0.00032058	
H		0.66208562		9.92428774		0.80012349		-0.00012498		 0.00015599		 0.00032058	
H		7.47198101		4.17271161		8.72515866		 0.00012498		-0.00015599		-0.00032058	
