# total energy = -117598.810124 eV	

CRYSTAL	
PRIMVEC	
		10.58799967		0.00000000		0.00000000	
		0.00000000		14.09700041		0.00000000	
		-2.45393833		0.00000000		10.50223687	
PRIMCOORD
   156 1	
Si		8.18330189		0.01395604		0.77874102		 0.00037085		-0.00003933		-0.00006117	
Si		-0.04923632		14.08304331		9.72349373		-0.00037085		 0.00003933		 0.00006117	
Si		1.17773073		7.06245625		4.47237636		-0.00037085		-0.00003933		 0.00006117	
Si		6.95633484		7.03454416		6.02985734		 0.00037085		 0.00003933		-0.00006117	
Si		3.61492732		2.67335451		7.07409458		 0.00018437		-0.00011090		-0.00045883	
Si		4.51914037		11.42364484		3.42814018		-0.00018437		 0.00011090		 0.00045883	
Si		3.29217333		9.72185471		8.67925650		-0.00018437		-0.00011090		 0.00045883	
Si		4.84189437		4.37514464		1.82297826		 0.00018437		 0.00011090		-0.00045883	
Si		1.21183891		1.76917322		4.48182932		-0.00011329		-0.00032461		 0.00017862	
Si		6.92222666		12.32782613		6.02040544		 0.00011329		 0.00032461		-0.00017862	
Si		8.14919371		8.81767236		0.76928912		 0.00011329		-0.00032461		-0.00017862	
Si		-0.01512708		5.27932699		9.73294564		-0.00011329		 0.00032461		 0.00017862	
Si		6.86524205		1.73858343		6.01778067		-0.00020144		-0.00007686		 0.00046537	
Si		1.26882459		12.35841698		4.48445409		 0.00020144		 0.00007686		-0.00046537	
Si		0.04185754		8.78708257		9.73557147		 0.00020144		-0.00007686		-0.00046537	
Si		8.09220909		5.30991678		0.76666329		-0.00020144		 0.00007686		 0.00046537	
Mg		4.06703279		0.00000000		5.25111632		0.00000000		0.00000000		-0.00000000	
Mg		5.29399984		7.04850020		0.00000000		0.00000000		0.00000000		0.00000000	
Mg		4.39572559		2.46006772		3.74289071		 0.00025777		-0.00013761		 0.00008967	
Mg		3.73834104		11.63693268		6.75934299		-0.00025777		 0.00013761		-0.00008967	
Mg		4.96530809		9.50856793		1.50822561		-0.00025777		-0.00013761		-0.00008967	
Mg		3.16875854		4.58843248		8.99400914		 0.00025777		 0.00013761		 0.00008967	
Mg		5.29399984		0.00000000		0.00000000		0.00000000		0.00000000		0.00000000	
Mg		4.06703279		7.04850020		5.25111632		0.00000000		0.00000000		0.00000000	
Mg		6.19165257		0.03510240		3.07862502		-0.00017024		 0.00007079		-0.00005432	
Mg		1.94241301		14.06189907		7.42360974		 0.00017024		-0.00007079		 0.00005432	
Mg		3.16938006		7.08360048		2.17249236		 0.00017024		 0.00007079		 0.00005432	
Mg		4.96468552		7.01339781		8.32974240		-0.00017024		-0.00007079		-0.00005432	
Mg		0.42170944		0.00493401		1.60054132		 0.00023601		-0.00001705		 0.00022614	
Mg		7.71235825		14.09206534		8.90169343		-0.00023601		 0.00001705		-0.00022614	
Mg		8.93932424		7.05343421		3.65057711		-0.00023601		-0.00001705		-0.00022614	
Mg		-0.80525761		7.04356620		6.85165764		 0.00023601		 0.00001705		 0.00022614	
Mg		-0.86838750		0.00493401		6.66597907		-0.00006042		 0.00013164		-0.00039279	
Mg		9.00245519		14.09206534		3.83625569		 0.00006042		-0.00013164		 0.00039279	
Mg		7.77548814		7.05343421		9.08737413		 0.00006042		 0.00013164		 0.00039279	
Mg		0.35857849		7.04356620		1.41486063		-0.00006042		-0.00013164		-0.00039279	
Mg		3.19404057		0.03904854		2.26270741		-0.00020829		 0.00015366		 0.00021448	
Mg		4.94002607		14.05795081		8.23952840		 0.00020829		-0.00015366		-0.00021448	
Mg		6.16699311		7.08754875		2.98841103		 0.00020829		 0.00015366		-0.00021448	
Mg		1.96707352		7.00945060		7.51382373		-0.00020829		-0.00015366		 0.00021448	
Mg		6.57114024		2.39564398		1.29818088		-0.00025420		-0.00004468		 0.00009074	
Mg		1.56292640		11.70135537		9.20405282		 0.00025420		 0.00004468		-0.00009074	
Mg		2.78989239		9.44414419		3.95293544		 0.00025420		-0.00004468		-0.00009074	
Mg		5.34417319		4.65285622		6.54929931		-0.00025420		 0.00004468		 0.00009074	
Mg		-1.63791484		2.43920407		10.18412148		 0.00015566		 0.00003512		 0.00030031	
Mg		9.77198042		11.65779528		0.31811327		-0.00015566		-0.00003512		-0.00030031	
Mg		8.54501337		9.48770322		5.56922959		-0.00015566		 0.00003512		-0.00030031	
Mg		-0.41094780		4.60929613		4.93300516		 0.00015566		-0.00003512		 0.00030031	
Mg		0.46893509		2.49798759		7.89736555		-0.00005477		-0.00012790		 0.00002406	
Mg		7.66513154		11.59901070		2.60486921		 0.00005477		 0.00012790		-0.00002406	
Mg		6.43816449		9.54648885		7.85598659		 0.00005477		-0.00012790		-0.00002406	
Mg		1.69590108		4.55051050		2.64624817		-0.00005477		 0.00012790		 0.00002406	
Mg		6.00405545		2.48008540		9.39802921		-0.00011265		-0.00045339		-0.00017060	
Mg		2.13001119		11.61691501		1.10420449		 0.00011265		 0.00045339		 0.00017060	
Mg		0.90304414		9.52858560		6.35532186		 0.00011265		-0.00045339		 0.00017060	
Mg		7.23102249		4.56841481		4.14691289		-0.00011265		 0.00045339		-0.00017060	
Mg		3.60529224		2.37633041		0.47365099		 0.00052601		 0.00006905		-0.00027798	
Mg		4.52877334		11.72066894		10.02858377		-0.00052601		-0.00006905		 0.00027798	
Mg		5.75574038		9.42483062		4.77746639		-0.00052601		 0.00006905		 0.00027798	
Mg		2.37832519		4.67216873		5.72476731		 0.00052601		-0.00006905		-0.00027798	
Mg		9.40458318		2.50221643		2.08805412		-0.00004055		-0.00031221		 0.00018247	
Mg		-1.27051655		11.59478186		8.41418064		 0.00004055		 0.00031221		-0.00018247	
Mg		-0.04354950		9.55071770		3.16306326		 0.00004055		-0.00031221		-0.00018247	
Mg		8.17761719		4.54628165		7.33917150		-0.00004055		 0.00031221		 0.00018247	
O		3.63390525		1.06009382		7.03229633		 0.00017305		-0.00000986		 0.00009123	
O		4.50016138		13.03690447		3.46993737		-0.00017305		 0.00000986		-0.00009123	
O		3.27319539		8.10859508		8.72105581		-0.00017305		-0.00000986		-0.00009123	
O		4.86087230		5.98840532		1.78117895		 0.00017305		 0.00000986		 0.00009123	
O		5.72267194		1.22502944		4.84468113		 0.00026142		 0.00034395		-0.00014876	
O		2.41139469		12.87197096		5.65755363		-0.00026142		-0.00034395		 0.00014876	
O		3.63836068		8.27352859		0.40643731		-0.00026142		 0.00034395		 0.00014876	
O		4.49570490		5.82347076		10.09579851		 0.00026142		-0.00034395		-0.00014876	
O		6.88739955		3.38327989		6.01357935		 0.00012716		-0.00004543		 0.00025059	
O		1.24666708		10.71371946		4.48865435		-0.00012716		 0.00004543		-0.00025059	
O		0.01970003		10.43178009		9.73977278		-0.00012716		-0.00004543		-0.00025059	
O		8.11436554		3.66522032		0.76246197		 0.00012716		 0.00004543		 0.00025059	
O		6.50173167		1.20952332		7.65507823		 0.00005132		-0.00042414		-0.00001141	
O		1.63233497		12.88747709		2.84715546		-0.00005132		 0.00042414		 0.00001141	
O		0.40536792		8.25802246		8.09827284		-0.00005132		-0.00042414		 0.00001141	
O		7.72869871		5.83897794		2.40396191		 0.00005132		 0.00042414		-0.00001141	
O		1.23586097		3.41852310		4.46240034		 0.00001155		-0.00036084		 0.00008498	
O		6.89820461		10.67847625		6.03983441		-0.00001155		 0.00036084		-0.00008498	
O		8.12517166		10.46702225		0.78871810		-0.00001155		-0.00036084		-0.00008498	
O		0.00889392		3.62997710		9.71351666		 0.00001155		 0.00036084		 0.00008498	
O		2.73335141		1.23348714		4.03495856		 0.00013030		 0.00054899		-0.00038613	
O		5.40071417		12.86351221		6.46727620		-0.00013030		-0.00054899		 0.00038613	
O		6.62768122		8.28198628		1.21615882		-0.00013030		 0.00054899		 0.00038613	
O		1.50638648		5.81501201		9.28607594		 0.00013030		-0.00054899		-0.00038613	
O		0.80050677		1.22784903		6.10809948		 0.00027300		-0.00009453		 0.00013576	
O		7.33355880		12.86915032		4.39413527		-0.00027300		 0.00009453		-0.00013576	
O		6.10659175		8.27634923		9.64525159		-0.00027300		-0.00009453		-0.00013576	
O		2.02747382		5.82065117		0.85698211		 0.00027300		 0.00009453		 0.00013576	
O		0.07524997		1.24194589		3.33025942		 0.00018036		 0.00002206		-0.00017504	
O		8.05881560		12.85505346		7.17197534		-0.00018036		-0.00002206		 0.00017504	
O		9.28578265		8.29044610		1.92085902		-0.00018036		 0.00002206		 0.00017504	
O		-1.15171602		5.80655431		8.58137574		 0.00018036		-0.00002206		-0.00017504	
O		3.98348606		3.40160560		5.55883324		 0.00002975		-0.00041844		-0.00040369	
O		4.15057952		10.69539375		4.94340152		-0.00002975		 0.00041844		 0.00040369	
O		2.92361247		10.45010580		10.19451996		-0.00002975		-0.00041844		 0.00040369	
O		5.21045311		3.64689355		0.30771480		 0.00002975		 0.00041844		-0.00040369	
O		4.65489441		3.36354385		8.18649206		-0.00032846		-0.00032784		 0.00011289	
O		3.47917116		10.73345549		2.31574270		 0.00032846		 0.00032784		-0.00011289	
O		2.25220517		10.41204512		7.56686008		 0.00032846		-0.00032784		-0.00011289	
O		5.88186146		3.68495635		2.93537468		-0.00032846		 0.00032784		 0.00011289	
O		4.87379495		1.19965530		1.80743507		-0.00050548		-0.00065767		 0.00013258	
O		3.26027062		12.89734510		8.69479969		 0.00050548		 0.00065767		-0.00013258	
O		4.48723767		8.24815445		3.44368337		 0.00050548		-0.00065767		-0.00013258	
O		3.64682896		5.84884490		7.05855139		-0.00050548		 0.00065767		 0.00013258	
O		4.67919493		1.04881654		10.18506699		 0.00017847		 0.00005293		-0.00022031	
O		3.45487170		13.04818281		0.31716777		-0.00017847		-0.00005293		 0.00022031	
O		2.22790466		8.09731675		5.56828514		-0.00017847		 0.00005293		 0.00022031	
O		5.90616198		5.99968260		4.93394961		 0.00017847		-0.00005293		-0.00022031	
O		7.85626399		1.06714331		2.30208948		 0.00026296		-0.00002744		 0.00031636	
O		0.27780158		13.02985710		8.20014422		-0.00026296		 0.00002744		-0.00031636	
O		1.50476863		8.11564246		2.94902684		-0.00026296		-0.00002744		-0.00031636	
O		6.62929800		5.98135689		7.55320685		 0.00026296		 0.00002744		 0.00031636	
O		-1.10338921		1.00652595		8.63283659		-0.00018266		 0.00005094		-0.00002308	
O		9.23745584		13.09047339		1.86939816		 0.00018266		-0.00005094		 0.00002308	
O		8.01048880		8.05502616		7.12051448		 0.00018266		 0.00005094		 0.00002308	
O		0.12357784		6.04197425		3.38172027		-0.00018266		-0.00005094		-0.00002308	
O		9.65343718		1.12212044		0.29301230		 0.00023953		-0.00012912		-0.00017383	
O		-1.51937054		12.97487891		10.20922245		-0.00023953		 0.00012912		 0.00017383	
O		-0.29240349		8.17062064		4.95810508		-0.00023953		-0.00012912		 0.00017383	
O		8.42647013		5.92637870		5.54412968		 0.00023953		 0.00012912		-0.00017383	
O		1.35807613		1.03471968		9.28187568		 0.00014866		 0.00006144		-0.00025885	
O		6.77599050		13.06227967		1.22035908		-0.00014866		-0.00006144		 0.00025885	
O		5.54902345		8.08321988		6.47147646		-0.00014866		 0.00006144		 0.00025885	
O		2.58504318		6.01377947		4.03075830		 0.00014866		-0.00006144		-0.00025885	
O		2.03629998		1.02767125		0.74670915		-0.00008371		 0.00015667		 0.00017819	
O		6.09776666		13.06932810		9.75552561		 0.00008371		-0.00015667		-0.00017819	
O		7.32473264		8.07617039		4.50440929		 0.00008371		 0.00015667		-0.00017819	
O		0.80933293		6.02082896		5.99782547		-0.00008371		-0.00015667		 0.00017819	
O		2.21259335		3.37200155		7.51434890		 0.00049368		 0.00024122		-0.00017581	
O		5.92147434		10.72499780		2.98788586		-0.00049368		-0.00024122		 0.00017581	
O		4.69450729		10.42050175		8.23900324		-0.00049368		 0.00024122		 0.00017581	
O		3.43956040		3.67649760		2.26323152		 0.00049368		-0.00024122		-0.00017581	
O		8.35511654		1.20106351		5.55043060		 0.00000268		 0.00034936		 0.00014429	
O		-0.22104990		12.89593584		4.95180416		-0.00000268		-0.00034936		-0.00014429	
O		-1.44801695		8.24956477		10.20292048		-0.00000268		 0.00034936		-0.00014429	
O		9.58208359		5.84743458		0.29931428		 0.00000268		-0.00034936		 0.00014429	
O		-0.84821948		3.49182700		6.68887244		-0.00037033		 0.00023060		 0.00021577	
O		8.98228717		10.60517341		3.81336126		 0.00037033		-0.00023060		-0.00021577	
O		7.75532012		10.54032614		9.06447863		 0.00037033		 0.00023060		-0.00021577	
O		0.37874651		3.55667320		1.43775612		-0.00037033		-0.00023060		 0.00021577	
O		8.86703150		3.49746617		3.82176283		-0.00000077		-0.00026262		 0.00060904	
O		-0.73296592		10.59953424		6.68047192		 0.00000077		 0.00026262		-0.00060904	
O		0.49400112		10.54596531		1.42935349		 0.00000077		-0.00026262		-0.00060904	
O		7.64006445		3.55103509		9.07288021		-0.00000077		 0.00026262		 0.00060904	
H		-1.20765983		2.72072098		6.30134107		 0.00000163		 0.00031359		 0.00021493	
H		9.34172647		11.37627837		4.20089369		-0.00000163		-0.00031359		-0.00021493	
H		8.11475942		9.76922119		9.45201107		-0.00000163		 0.00031359		-0.00021493	
H		0.01930722		4.32777922		1.05022369		 0.00000163		-0.00031359		 0.00021493	
H		8.69894806		2.87578753		4.36892948		-0.00002267		 0.00046569		 0.00026765	
H		-0.56488143		11.22121182		6.13330528		 0.00002267		-0.00046569		-0.00026765	
H		0.66208562		9.92428774		0.88218790		 0.00002267		 0.00046569		-0.00026765	
H		7.47198101		4.17271161		9.62004686		-0.00002267		-0.00046569		 0.00026765	
