# total energy = -34531.1580392 eV	

CRYSTAL	
PRIMVEC	
		9.04828095		0.00000000		0.06221235	
		0.00000000		5.26280235		0.00000000	
		-0.37675007		-0.00000934		13.03038534	
PRIMCOORD
   56 1	
Si		1.27347412		2.49161213		4.69513941		-0.00006857		 0.00000950		 0.00017161	
Si		7.39806330		2.77118648		8.39742838		 0.00005507		-0.00001383		-0.00011109	
Si		7.58644114		2.49160279		1.88225440		 0.00004442		 0.00003057		-0.00016978	
Si		1.08508974		2.77118648		11.21034142		-0.00003539		-0.00000985		 0.00014198	
Si		5.79760244		5.12302826		4.72622129		-0.00002671		-0.00003114		 0.00023246	
Si		2.87392376		0.13980960		8.36628576		 0.00004485		-0.00008902		 0.00001003	
Si		3.06229786		5.12303480		1.85119214		 0.00005065		-0.00005267		-0.00030394	
Si		5.60924329		0.13979558		11.24146628		-0.00007159		-0.00004631		 0.00008786	
Mg		4.33576544		2.63139744		6.54629230		 0.00000492		 0.00000390		 0.00000445	
Mg		4.52414328		2.63140118		0.03110431		-0.00000484		 0.00000351		-0.00000572	
Mg		-0.18837504		0.00000000		6.51518893		-0.00000195		 0.00000125		 0.00000587	
Mg		0.00000000		0.00000000		0.00000000		 0.00000216		 0.00000077		-0.00000712	
O		0.34346955		1.16263466		4.84811657		 0.00004339		 0.00023400		 0.00004019	
O		8.32805759		4.10015835		8.24447270		-0.00002710		-0.00022270		-0.00004904	
O		8.51643543		1.16264120		1.72928191		-0.00003099		 0.00021858		-0.00003926	
O		0.15510105		4.10015555		11.36330270		 0.00002188		-0.00021847		 0.00004615	
O		4.86761470		3.79403583		4.87921994		 0.00003556		 0.00023842		 0.00003854	
O		3.80391057		1.46874503		8.21337400		-0.00001074		-0.00019103		-0.00005916	
O		3.99229869		3.79403303		1.69817106		-0.00004817		 0.00025234		-0.00002872	
O		4.67924059		1.46875063		11.39440887		 0.00002888		-0.00021409		 0.00004789	
O		2.63220289		2.29142348		5.56844645		-0.00006577		-0.00009928		-0.00004498	
O		6.03933639		2.97137420		7.52414562		 0.00004825		 0.00009511		 0.00002804	
O		6.22770115		2.29142535		1.00894735		 0.00007721		-0.00009917		 0.00005128	
O		2.44382785		2.97137327		12.08363445		-0.00006711		 0.00009320		-0.00003799	
O		7.15635738		4.92282278		5.59955730		-0.00010258		-0.00009005		-0.00006649	
O		1.51520153		0.33996835		7.49305066		 0.00002594		 0.00010372		 0.00000683	
O		1.70355040		4.92282559		0.97783277		 0.00010564		-0.00008936		 0.00007608	
O		6.96795992		0.33996648		12.11473502		-0.00003552		 0.00010156		-0.00001912	
O		0.49645045		3.67875891		5.53634982		-0.00016240		-0.00009676		 0.00014135	
O		8.17507669		1.58404438		7.55624320		 0.00018065		 0.00007995		-0.00015729	
O		8.36345453		3.67875891		1.04104212		 0.00016442		-0.00009807		-0.00013755	
O		0.30808382		1.58404344		12.05153875		-0.00018208		 0.00008057		 0.00015450	
O		5.02059746		1.04735119		5.56745599		-0.00017762		-0.00008711		 0.00014418	
O		3.65093528		4.21544836		7.52513889		 0.00017847		 0.00007784		-0.00016593	
O		3.83931125		1.04735773		1.00993688		 0.00016746		-0.00009913		-0.00012919	
O		4.83222149		4.21544275		12.08264118		-0.00016818		 0.00008889		 0.00015222	
O		1.51800286		3.10379550		3.23098883		 0.00018292		-0.00027142		-0.00034796	
O		7.15352802		2.15899751		9.86160606		-0.00017514		 0.00028013		 0.00032294	
O		7.34190305		3.10379737		3.34640872		-0.00017864		-0.00027502		 0.00034487	
O		1.32963156		2.15900031		9.74617869		 0.00017499		 0.00027383		-0.00034577	
O		6.04214520		0.47238685		3.26211089		 0.00018414		-0.00025399		-0.00039182	
O		2.62938194		4.79039027		9.83052885		-0.00016194		 0.00031329		 0.00023208	
O		2.81776445		0.47238124		3.31527264		-0.00019268		-0.00023830		 0.00044457	
O		5.85377390		4.79039775		9.77726805		 0.00017365		 0.00028934		-0.00030661	
Ca		1.52739545		2.49960312		1.12522315		 0.00035177		 0.00018422		 0.00019468	
Ca		7.14413543		2.76319175		11.96736799		-0.00034762		-0.00017827		-0.00020968	
Ca		7.33251140		2.49960125		5.45217533		-0.00034792		 0.00018330		-0.00020327	
Ca		1.33902321		2.76319362		7.64040741		 0.00034419		-0.00017729		 0.00021639	
Ca		6.05154059		5.13100804		1.15632372		 0.00034427		 0.00017766		 0.00020122	
Ca		2.61999402		0.13179058		11.93626369		-0.00034852		-0.00018223		-0.00020191	
Ca		2.80836906		5.13100617		5.42107102		-0.00034770		 0.00017921		-0.00021023	
Ca		5.86316275		0.13179245		7.67151639		 0.00035221		-0.00018343		 0.00020967	
Ca		-0.09418752		4.84863049		3.25759213		-0.00000231		-0.00032263		-0.00000291	
Ca		-0.28256256		0.41416999		9.77278480		 0.00000187		 0.00031950		 0.00000372	
Ca		4.42995202		2.21722278		3.28869924		 0.00000227		-0.00031232		-0.00000556	
Ca		4.24158072		3.04556836		9.80388723		-0.00000233		 0.00032879		 0.00000644	
