# total energy = -34519.4205645 eV	

CRYSTAL	
PRIMVEC	
		9.34399986		0.00000000		0.00000000	
		0.00000000		5.30799928		0.00000000	
		-0.48050585		0.00000000		13.28130911	
PRIMCOORD
   56 1	
Si		1.25702494		2.54146985		4.82257662		 0.00016882		-0.00075934		 0.00068304	
Si		7.60647094		2.76653036		8.45873342		-0.00016884		 0.00075921		-0.00068314	
Si		7.84672293		2.54146985		1.81807887		-0.00017645		-0.00074995		-0.00061243	
Si		1.01677295		2.76653036		11.46323210		 0.00017582		 0.00074982		 0.00061202	
Si		5.92902487		5.19546949		4.82257662		 0.00016921		-0.00075929		 0.00068282	
Si		2.93447101		0.11252979		8.45873342		-0.00016905		 0.00075930		-0.00068256	
Si		3.17472300		5.19546949		1.81807887		-0.00017579		-0.00074986		-0.00061250	
Si		5.68877288		0.11252979		11.46323210		 0.00017629		 0.00074996		 0.00061283	
Mg		4.43174794		2.65399964		6.64065455		 0.00000042		-0.00000032		-0.00000026	
Mg		4.67199993		2.65399964		0.00000000		 0.00000013		-0.00000032		 0.00000018	
Mg		-0.24025199		0.00000000		6.64065455		-0.00000024		-0.00000018		 0.00000007	
Mg		0.00000000		0.00000000		0.00000000		-0.00000026		-0.00000023		 0.00000012	
O		0.46208042		1.13431953		4.97119480		-0.00101710		-0.00022225		 0.00085071	
O		8.40141453		4.17367974		8.31011617		 0.00101720		 0.00022183		-0.00085089	
O		8.64166745		1.13431953		1.66946068		 0.00101992		-0.00022306		-0.00085984	
O		0.22182843		4.17367974		11.61184936		-0.00101974		 0.00022343		 0.00085977	
O		5.13408034		3.78832011		4.97119480		-0.00101721		-0.00022169		 0.00085094	
O		3.72941553		1.51968010		8.31011617		 0.00101723		 0.00022220		-0.00085080	
O		3.96966752		3.78832011		1.66946068		 0.00101968		-0.00022336		-0.00085972	
O		4.89382835		1.51968010		11.61184936		-0.00101992		 0.00022298		 0.00085988	
O		2.66276525		2.43743375		5.63791629		 0.00034507		-0.00049139		 0.00182869	
O		6.20072970		2.87056552		7.64339375		-0.00034539		 0.00049145		-0.00182846	
O		6.44098262		2.43743375		1.00273920		-0.00035434		-0.00049052		-0.00184044	
O		2.42251326		2.87056552		12.27857178		 0.00035438		 0.00049052		 0.00184031	
O		7.33476517		5.09143433		5.63791629		 0.00034519		-0.00049149		 0.00182870	
O		1.52873070		0.21656588		7.64339375		-0.00034521		 0.00049139		-0.00182863	
O		1.76898269		5.09143433		1.00273920		-0.00035430		-0.00049060		-0.00184052	
O		7.09451318		0.21656588		12.27857178		 0.00035459		 0.00049054		 0.00184030	
O		0.40556510		3.65933460		5.65518213		 0.00192208		 0.00049065		-0.00202758	
O		8.45793078		1.64866468		7.62612884		-0.00192190		-0.00049024		 0.00202775	
O		8.69818277		3.65933460		0.98547335		-0.00192076		 0.00049621		 0.00201938	
O		0.16531218		1.64866468		12.29583669		 0.00192086		-0.00049613		-0.00201883	
O		5.07756409		1.00533496		5.65518213		 0.00192180		 0.00049051		-0.00202785	
O		3.78593085		4.30266525		7.62612884		-0.00192198		-0.00049042		 0.00202776	
O		4.02618284		1.00533496		0.98547335		-0.00192094		 0.00049636		 0.00201896	
O		4.83731210		4.30266525		12.29583669		 0.00192062		-0.00049592		-0.00201946	
O		1.45510185		3.11208082		3.35087515		-0.00058496		-0.00015056		-0.00014365	
O		7.40839402		2.19592032		9.93043583		 0.00058479		 0.00015069		 0.00014358	
O		7.64864601		3.11208082		3.28978127		 0.00059661		-0.00016479		 0.00008654	
O		1.21484893		2.19592032		9.99152970		-0.00059673		 0.00016460		-0.00008632	
O		6.12710085		0.45808025		3.35087515		-0.00058480		-0.00015088		-0.00014322	
O		2.73639410		4.84991996		9.93043583		 0.00058515		 0.00015063		 0.00014324	
O		2.97664609		0.45808025		3.28978127		 0.00059665		-0.00016462		 0.00008661	
O		5.88684886		4.84991996		9.99152970		-0.00059667		 0.00016466		-0.00008698	
Ca		1.59139157		2.54783965		1.18761491		 0.00079758		-0.00111299		 0.00053272	
Ca		7.27210244		2.76015962		12.09369607		-0.00079761		 0.00111250		-0.00053228	
Ca		7.51235443		2.54783965		5.45304058		-0.00079543		-0.00111067		-0.00052334	
Ca		1.35113958		2.76015962		7.82826946		 0.00079525		 0.00111129		 0.00052348	
Ca		6.26339149		5.20184023		1.18761491		 0.00079762		-0.00111232		 0.00053238	
Ca		2.60010251		0.10615999		12.09369607		-0.00079747		 0.00111300		-0.00053263	
Ca		2.84035450		5.20184023		5.45304058		-0.00079539		-0.00111123		-0.00052349	
Ca		6.02313950		0.10615999		7.82826946		 0.00079557		 0.00111077		 0.00052315	
Ca		-0.12012646		4.93166314		3.32032774		-0.00000073		-0.00155599		 0.00000803	
Ca		-0.36037845		0.37633707		9.96098323		 0.00000026		 0.00155608		-0.00000849	
Ca		4.55187347		2.27766257		3.32032774		-0.00000022		-0.00155608		 0.00000849	
Ca		4.31162148		3.03033671		9.96098323		 0.00000063		 0.00155612		-0.00000813	
