# total energy = -7174.9396334 eV

CRYSTAL
PRIMVEC
		3.34540005		0.00000000		0.00000000
		-1.67270002		2.69507101		0.00000000
		0.00000000		0.00000000		12.76800030
PRIMECORD
   12 1
O		0.00000000		1.79671400		5.27829124		0.00000000		-0.00053374		-0.00000332
O		1.67270002		0.89835700		7.48970906		0.00000000		 0.00053374		 0.00000332
O		0.00000000		1.79671400		10.41613422		0.00000000		-0.00000981		-0.00056996
O		1.67270002		0.89835700		2.35186508		0.00000000		 0.00000981		 0.00056996
O		0.00000000		0.00000000		0.00000000		0.00000000		0.00000000		0.00000000
H		0.00000000		1.79671400		4.28877108		0.00000000		-0.00013945		-0.00017328
H		1.67270002		0.89835700		8.47922822		0.00000000		 0.00013945		 0.00017328
H		0.00000000		1.79671400		9.42533712		0.00000000		 0.00081257		-0.00013071
H		1.67270002		0.89835700		3.34266217		0.00000000		-0.00081257		 0.00013071
Mg		0.00000000		0.00000000		6.38400015		0.00000000		0.00000000		0.00000000
Mg		1.67270002		0.89835700		11.53333425		0.00000000		 0.00091690		 0.00021180
Mg		0.00000000		1.79671400		1.23466605		0.00000000		-0.00091690		-0.00021180
