# total energy = -4022.16100594 eV	

CRYSTAL	
PRIMVEC	
		4.33969596		0.00000000		0.00000000	
		0.00000000		3.94517854		0.00000000	
		0.00000000		0.00000000		3.94517854	
PRIMCOORD
   5 1	
Ca		0.00000000		0.00000000		0.00000000		0.00000000		0.00000000		0.00000000	
Mg		2.16984798		1.97258884		1.97258884		0.00000000		0.00000000		0.00000000	
O		2.16984798		1.97258884		0.00000000		0.00000000		0.00000000		0.00000000	
O		2.16984798		0.00000000		1.97258884		0.00000000		0.00000000		0.00000000	
O		0.00000000		1.97258884		1.97258884		0.00000000		0.00000000		0.00000000	
