# total energy = -4022.31514877 eV	

CRYSTAL	
PRIMVEC	
		3.64929011		0.00000000		0.00000000	
		0.00000000		3.94517820		0.00000000	
		0.00000000		0.00000000		3.94517820	
PRIMCOORD
   5 1	
Ca		0.00000000		0.00000000		0.00000000		0.00000000		0.00000000		0.00000000	
Mg		1.82464506		1.97258910		1.97258910		0.00000000		0.00000000		0.00000000	
O		1.82464506		1.97258910		0.00000000		0.00000000		0.00000000		0.00000000	
O		1.82464506		0.00000000		1.97258910		0.00000000		0.00000000		0.00000000	
O		0.00000000		1.97258910		1.97258910		0.00000000		0.00000000		0.00000000	
