# total energy = -4022.45116255 eV	

CRYSTAL	
PRIMVEC	
		3.74791869		0.00000000		0.00000000	
		0.00000000		3.94517914		0.00000000	
		0.00000000		0.00000000		3.94517914	
PRIMCOORD
   5 1	
Ca		0.00000000		0.00000000		0.00000000		0.00000000		0.00000000		0.00000000	
Mg		1.87395972		1.97258882		1.97258882		0.00000000		0.00000000		0.00000000	
O		1.87395972		1.97258882		0.00000000		0.00000000		0.00000000		0.00000000	
O		1.87395972		0.00000000		1.97258882		0.00000000		0.00000000		0.00000000	
O		0.00000000		1.97258882		1.97258882		0.00000000		0.00000000		0.00000000	
