# total energy = -4022.51083839 eV	

CRYSTAL	
PRIMVEC	
		3.84654885		0.00000000		0.00000000	
		0.00000000		3.94517821		0.00000000	
		0.00000000		0.00000000		3.94517821	
PRIMCOORD
   5 1	
Ca		0.00000000		0.00000000		0.00000000		0.00000000		0.00000000		0.00000000	
Mg		1.92327404		1.97258910		1.97258910		0.00000000		0.00000000		0.00000000	
O		1.92327404		1.97258910		0.00000000		0.00000000		0.00000000		0.00000000	
O		1.92327404		0.00000000		1.97258910		0.00000000		0.00000000		0.00000000	
O		0.00000000		1.97258910		1.97258910		0.00000000		0.00000000		0.00000000	
