# total energy = -4022.46751892 eV	

CRYSTAL	
PRIMVEC	
		4.04380706		0.00000000		0.00000000	
		0.00000000		3.94517860		0.00000000	
		0.00000000		0.00000000		3.94517860	
PRIMCOORD
   5 1	
Ca		0.00000000		0.00000000		0.00000000		0.00000000		0.00000000		0.00000000	
Mg		2.02190393		1.97258890		1.97258890		0.00000000		0.00000000		0.00000000	
O		2.02190393		1.97258890		0.00000000		0.00000000		0.00000000		0.00000000	
O		2.02190393		0.00000000		1.97258890		0.00000000		0.00000000		0.00000000	
O		0.00000000		1.97258890		1.97258890		0.00000000		0.00000000		0.00000000	
