# total energy = -41275.4786569 eV	

CRYSTAL	
PRIMVEC	
		5.69780014		0.00000000		0.00000000	
		0.00000000		11.46200244		0.00000000	
		0.00000000		0.00000000		8.25709812	
PRIMCOORD
   56 1	
Mg		0.00000000		0.00000000		0.00000000		0.00000000		0.00000000		0.00000000	
Mg		0.00000000		5.73100008		0.00000000		0.00000000		0.00000000		0.00000000	
Mg		2.84890007		5.73100008		4.12855020		0.00000000		0.00000000		0.00000000	
Mg		2.84890007		0.00000000		4.12855020		0.00000000		0.00000000		0.00000000	
Mg		0.00000000		2.86550004		8.00773618		0.00000000		-0.00000002		-0.00017216	
Mg		0.00000000		8.59650012		0.24936422		0.00000000		 0.00000002		 0.00017216	
Mg		2.84890007		8.59650012		3.87918598		0.00000000		 0.00000002		-0.00017218	
Mg		2.84890007		2.86550004		4.37791499		0.00000000		-0.00000002		 0.00017218	
Mg		1.42445004		1.45452815		2.06427482		-0.00000000		-0.00090037		-0.00000000	
Mg		4.27335011		10.00747201		6.19282502		0.00000000		 0.00090037		0.00000000	
Mg		4.27335011		4.27647193		2.06427482		 0.00000001		 0.00090036		-0.00000001	
Mg		1.42445004		7.18552823		6.19282502		-0.00000001		-0.00090036		 0.00000001	
Mg		4.27335011		7.18552823		6.19282502		 0.00000001		-0.00090036		 0.00000001	
Mg		1.42445004		4.27647193		2.06427482		-0.00000001		 0.00090036		-0.00000001	
Mg		1.42445004		10.00747201		6.19282502		-0.00000000		 0.00090037		0.00000000	
Mg		4.27335011		1.45452815		2.06427482		0.00000000		-0.00090037		-0.00000000	
Si		0.00000000		1.37429401		5.09050239		0.00000000		 0.00030539		 0.00023191	
Si		0.00000000		10.08770615		3.16659801		0.00000000		-0.00030539		-0.00023191	
Si		0.00000000		4.35670607		5.09050239		0.00000000		-0.00030544		 0.00023187	
Si		0.00000000		7.10529409		3.16659801		0.00000000		 0.00030544		-0.00023187	
Si		2.84890007		7.10529409		0.96195219		0.00000000		 0.00030544		 0.00023186	
Si		2.84890007		4.35670607		7.29514821		0.00000000		-0.00030544		-0.00023186	
Si		2.84890007		10.08770615		0.96195219		0.00000000		-0.00030541		 0.00023184	
Si		2.84890007		1.37429401		7.29514821		0.00000000		 0.00030541		-0.00023184	
O		0.00000000		2.86550004		1.80169910		0.00000000		-0.00000002		 0.00008965	
O		0.00000000		8.59650012		6.45540130		0.00000000		 0.00000002		-0.00008965	
O		2.84890007		8.59650012		5.93024930		0.00000000		 0.00000001		 0.00008965	
O		2.84890007		2.86550004		2.32685110		0.00000000		-0.00000001		-0.00008965	
O		0.00000000		2.86550004		5.90960617		0.00000000		-0.00000002		 0.00065713	
O		0.00000000		8.59650012		2.34749423		0.00000000		 0.00000002		-0.00065713	
O		2.84890007		8.59650012		1.78105597		0.00000000		 0.00000002		 0.00065715	
O		2.84890007		2.86550004		6.47604443		0.00000000		-0.00000002		-0.00065715	
O		0.00000000		11.34508700		2.11794581		0.00000000		-0.00003814		-0.00026444	
O		0.00000000		0.11691316		6.13915402		0.00000000		 0.00003814		 0.00026444	
O		0.00000000		5.84791324		2.11794581		0.00000000		 0.00003815		-0.00026446	
O		0.00000000		5.61408692		6.13915402		0.00000000		-0.00003815		 0.00026446	
O		2.84890007		5.61408692		6.24649601		0.00000000		-0.00003817		-0.00026447	
O		2.84890007		5.84791324		2.01060382		0.00000000		 0.00003817		 0.00026447	
O		2.84890007		0.11691316		6.24649601		0.00000000		 0.00003814		-0.00026445	
O		2.84890007		11.34508700		2.01060382		0.00000000		-0.00003814		 0.00026445	
O		1.48199782		1.40524104		8.20012639		 0.00009168		-0.00002131		-0.00049962	
O		4.21580232		10.05675798		0.05697401		-0.00009168		 0.00002131		 0.00049962	
O		4.21580232		4.32575904		8.20012639		-0.00009169		 0.00002134		-0.00049961	
O		1.48199782		7.13624112		0.05697401		 0.00009169		-0.00002134		 0.00049961	
O		4.21580232		7.13624112		0.05697401		-0.00009169		-0.00002134		 0.00049961	
O		1.48199782		4.32575904		8.20012639		 0.00009169		 0.00002134		-0.00049961	
O		1.48199782		10.05675798		0.05697401		 0.00009168		 0.00002131		 0.00049962	
O		4.21580232		1.40524104		8.20012639		-0.00009168		-0.00002131		-0.00049962	
O		4.33089789		7.13624112		4.07157619		 0.00009167		-0.00002134		-0.00049960	
O		1.36690225		4.32575904		4.18552421		-0.00009167		 0.00002134		 0.00049960	
O		1.36690225		10.05675798		4.07157619		-0.00009165		 0.00002131		-0.00049961	
O		4.33089789		1.40524104		4.18552421		 0.00009165		-0.00002131		 0.00049961	
O		1.36690225		1.40524104		4.18552421		-0.00009165		-0.00002131		 0.00049961	
O		4.33089789		10.05675798		4.07157619		 0.00009165		 0.00002131		-0.00049961	
O		4.33089789		4.32575904		4.18552421		 0.00009167		 0.00002134		 0.00049960	
O		1.36690225		7.13624112		4.07157619		-0.00009167		-0.00002134		-0.00049960	
