# total energy = -12326.9836434 eV	

CRYSTAL	
PRIMVEC	
		2.46200010		0.00000000		0.00000000	
		0.00000000		7.24769990		0.00000000	
		0.00000000		0.00000000		6.10800066	
PRIMCOORD
   20 1	
O		0.00000000		0.52908210		1.52700017		0.00000000		-0.00073974		-0.00001313	
O		0.00000000		6.71861830		4.58100025		0.00000000		 0.00073974		 0.00001313	
O		1.23100005		4.15293205		1.52700017		0.00000000		-0.00073974		-0.00001373	
O		1.23100005		3.09476810		4.58100025		0.00000000		 0.00073974		 0.00001373	
O		0.00000000		2.63091522		2.69362802		0.00000000		-0.00035142		-0.00033974	
O		0.00000000		4.61678518		3.41437215		0.00000000		 0.00035142		 0.00033974	
O		0.00000000		4.61678518		5.74762811		0.00000000		 0.00034039		-0.00032913	
O		0.00000000		2.63091522		0.36037206		-0.00000000		-0.00034039		 0.00032913	
O		1.23100005		6.25476615		2.69362802		-0.00000000		-0.00035136		-0.00033966	
O		1.23100005		0.99293498		3.41437215		0.00000000		 0.00035136		 0.00033966	
O		1.23100005		0.99293498		5.74762811		0.00000000		 0.00034059		-0.00032927	
O		1.23100005		6.25476615		0.36037206		0.00000000		-0.00034059		 0.00032927	
Si		0.00000000		0.00000000		0.00000000		0.00000000		0.00000000		0.00000000	
Si		0.00000000		0.00000000		3.05400009		0.00000000		0.00000000		0.00000000	
Si		1.23100005		3.62385020		0.00000000		0.00000000		0.00000000		0.00000000	
Si		1.23100005		3.62385020		3.05400009		0.00000000		0.00000000		0.00000000	
Mg		0.00000000		1.83366813		4.58100025		0.00000000		 0.00047660		-0.00000535	
Mg		0.00000000		5.41403226		1.52700017		0.00000000		-0.00047660		 0.00000535	
Mg		1.23100005		5.45751931		4.58100025		0.00000000		 0.00047663		-0.00000541	
Mg		1.23100005		1.79018207		1.52700017		0.00000000		-0.00047663		 0.00000541	
