# total energy = -12334.906728 eV	

CRYSTAL	
PRIMVEC	
		2.46200010		0.00000000		0.00000000	
		0.00000000		7.65035017		0.00000000	
		0.00000000		0.00000000		6.10800066	
PRIMCOORD
   20 1	
O		0.00000000		0.55847592		1.52700017		0.00000000		-0.00025510		-0.00000734	
O		0.00000000		7.09187524		4.58100025		0.00000000		 0.00025510		 0.00000734	
O		1.23100005		4.38365125		1.52700017		0.00000000		-0.00025508		-0.00000741	
O		1.23100005		3.26670015		4.58100025		0.00000000		 0.00025508		 0.00000741	
O		0.00000000		2.77707702		2.69362802		0.00000000		-0.00017802		-0.00012678	
O		0.00000000		4.87327315		3.41437215		0.00000000		 0.00017802		 0.00012678	
O		0.00000000		4.87327315		5.74762811		0.00000000		 0.00017180		-0.00013324	
O		0.00000000		2.77707702		0.36037206		0.00000000		-0.00017180		 0.00013324	
O		1.23100005		6.60225334		2.69362802		0.00000000		-0.00017809		-0.00012672	
O		1.23100005		1.04809806		3.41437215		0.00000000		 0.00017809		 0.00012672	
O		1.23100005		1.04809806		5.74762811		0.00000000		 0.00017185		-0.00013320	
O		1.23100005		6.60225334		0.36037206		0.00000000		-0.00017185		 0.00013320	
Si		0.00000000		0.00000000		0.00000000		0.00000000		0.00000000		0.00000000	
Si		0.00000000		0.00000000		3.05400009		0.00000000		0.00000000		0.00000000	
Si		1.23100005		3.82517508		0.00000000		0.00000000		0.00000000		0.00000000	
Si		1.23100005		3.82517508		3.05400009		0.00000000		0.00000000		0.00000000	
Mg		0.00000000		1.93553905		4.58100025		0.00000000		 0.00035530		 0.00000388	
Mg		0.00000000		5.71481211		1.52700017		0.00000000		-0.00035530		-0.00000388	
Mg		1.23100005		5.76071413		4.58100025		-0.00000000		 0.00035537		 0.00000396	
Mg		1.23100005		1.88963702		1.52700017		0.00000000		-0.00035537		-0.00000396	
