# total energy = -12344.6016249 eV	

CRYSTAL	
PRIMVEC	
		2.46200010		0.00000000		0.00000000	
		0.00000000		8.45565070		0.00000000	
		0.00000000		0.00000000		6.10800066	
PRIMCOORD
   20 1	
O		0.00000000		0.61726208		1.52700017		0.00000000		 0.00047202		-0.00001095	
O		0.00000000		7.83838838		4.58100025		0.00000000		-0.00047202		 0.00001095	
O		1.23100005		4.84508817		1.52700017		0.00000000		 0.00047194		-0.00001056	
O		1.23100005		3.61056303		4.58100025		0.00000000		-0.00047194		 0.00001056	
O		0.00000000		3.06940113		2.69362802		0.00000000		 0.00008268		 0.00003760	
O		0.00000000		5.38624933		3.41437215		0.00000000		-0.00008268		-0.00003760	
O		0.00000000		5.38624933		5.74762811		0.00000000		-0.00008829		 0.00003239	
O		0.00000000		3.06940113		0.36037206		0.00000000		 0.00008829		-0.00003239	
O		1.23100005		7.29722722		2.69362802		0.00000000		 0.00008261		 0.00003749	
O		1.23100005		1.15842398		3.41437215		0.00000000		-0.00008261		-0.00003749	
O		1.23100005		1.15842398		5.74762811		0.00000000		-0.00008839		 0.00003247	
O		1.23100005		7.29722722		0.36037206		0.00000000		 0.00008839		-0.00003247	
Si		0.00000000		0.00000000		0.00000000		0.00000000		0.00000000		0.00000000	
Si		0.00000000		0.00000000		3.05400009		0.00000000		0.00000000		0.00000000	
Si		1.23100005		4.22782511		0.00000000		0.00000000		0.00000000		0.00000000	
Si		1.23100005		4.22782511		3.05400009		0.00000000		0.00000000		0.00000000	
Mg		0.00000000		2.13927916		4.58100025		0.00000000		-0.00077496		 0.00000008	
Mg		0.00000000		6.31637130		1.52700017		0.00000000		 0.00077496		-0.00000008	
Mg		1.23100005		6.36710525		4.58100025		0.00000000		-0.00077494		 0.00000011	
Mg		1.23100005		2.08854620		1.52700017		0.00000000		 0.00077494		-0.00000011	
