# total energy = -12346.9954954 eV	

CRYSTAL	
PRIMVEC	
		2.46200010		0.00000000		0.00000000	
		0.00000000		8.85830097		0.00000000	
		0.00000000		0.00000000		6.10800066	
PRIMCOORD
   20 1	
O		0.00000000		0.64665614		1.52700017		0.00000000		-0.00009794		-0.00000403	
O		0.00000000		8.21164434		4.58100025		0.00000000		 0.00009794		 0.00000403	
O		1.23100005		5.07580614		1.52700017		-0.00000000		-0.00009794		-0.00000388	
O		1.23100005		3.78249410		4.58100025		0.00000000		 0.00009794		 0.00000388	
O		0.00000000		3.21556318		2.69362802		0.00000000		 0.00036829		 0.00014562	
O		0.00000000		5.64273730		3.41437215		0.00000000		-0.00036829		-0.00014562	
O		0.00000000		5.64273730		5.74762811		0.00000000		-0.00037055		 0.00014395	
O		0.00000000		3.21556318		0.36037206		0.00000000		 0.00037055		-0.00014395	
O		1.23100005		7.64471440		2.69362802		0.00000000		 0.00036827		 0.00014558	
O		1.23100005		1.21358706		3.41437215		0.00000000		-0.00036827		-0.00014558	
O		1.23100005		1.21358706		5.74762811		0.00000000		-0.00037064		 0.00014398	
O		1.23100005		7.64471440		0.36037206		0.00000000		 0.00037064		-0.00014398	
Si		0.00000000		0.00000000		0.00000000		0.00000000		0.00000000		0.00000000	
Si		0.00000000		0.00000000		3.05400009		0.00000000		0.00000000		0.00000000	
Si		1.23100005		4.42915024		0.00000000		0.00000000		0.00000000		0.00000000	
Si		1.23100005		4.42915024		3.05400009		0.00000000		0.00000000		0.00000000	
Mg		0.00000000		2.24115007		4.58100025		0.00000000		-0.00037896		 0.00000775	
Mg		0.00000000		6.61715016		1.52700017		0.00000000		 0.00037896		-0.00000775	
Mg		1.23100005		6.67030031		4.58100025		0.00000000		-0.00037898		 0.00000776	
Mg		1.23100005		2.18800017		1.52700017		0.00000000		 0.00037898		-0.00000776	
