# total energy = -8762.05464351 eV

CRYSTAL
PRIMVEC
		3.04799991		0.00000000		0.12191987
		-1.52399843		2.63964703		-0.06095994
		0.49447892		0.00000000		12.36200050
PRIMECORD
   11 1
H		0.23225693		1.75976397		5.80643157		 0.00006950		 0.00060625		 0.00039191
H		1.78622286		0.87988183		6.61652856		-0.00006950		-0.00060625		-0.00039191
Mg		0.34549282		0.00000000		8.63732942		-0.00009787		-0.00069114		-0.00054654
Mg		0.14898701		0.00000000		3.72467077		 0.00009787		 0.00069114		 0.00054654
Mg		1.96908193		0.87988183		11.18799612		-0.00033412		-0.00034820		 0.00038540
Mg		0.04939909		1.75976397		1.23496401		 0.00033412		 0.00034820		-0.00038540
O		1.62279690		0.87988183		2.53088796		-0.00012360		-0.00001879		 0.00006124
O		0.39568289		1.75976397		9.89207217		 0.00012360		 0.00001879		-0.00006124
O		0.19264884		1.75976397		4.81623464		-0.00041531		-0.00002969		 0.00030743
O		1.82583095		0.87988183		7.60672457		 0.00041531		 0.00002969		-0.00030743
O		0.00000000		0.00000000		0.00000000		0.00000000		0.00000000		0.00000000
