# total energy = -8762.05464351 eV

CRYSTAL
PRIMVEC
		3.04799991		0.00000000		-0.12191987
		-1.52399843		2.63964703		0.06095994
		-0.49447892		0.00000000		12.36200050
PRIMECORD
   11 1
H		-0.23225693		1.75976397		5.80643157		-0.00006949		 0.00060624		 0.00039192
H		1.26177705		0.87988183		6.49460868		 0.00006949		-0.00060624		-0.00039192
Mg		-0.34549282		0.00000000		8.63732942		 0.00009788		-0.00069114		-0.00054653
Mg		-0.14898701		0.00000000		3.72467077		-0.00009788		 0.00069114		 0.00054653
Mg		1.07891890		0.87988183		11.06607624		 0.00033413		-0.00034819		 0.00038538
Mg		-0.04939909		1.75976397		1.23496401		-0.00033413		 0.00034819		-0.00038538
O		1.42520300		0.87988183		2.40896778		 0.00012359		-0.00001879		 0.00006126
O		-0.39568289		1.75976397		9.89207217		-0.00012359		 0.00001879		-0.00006126
O		-0.19264884		1.75976397		4.81623464		 0.00041532		-0.00002968		 0.00030744
O		1.22216895		0.87988183		7.48480439		-0.00041532		 0.00002968		-0.00030744
O		0.00000000		0.00000000		0.00000000		0.00000000		0.00000000		0.00000000
