# total energy = -8762.04028473 eV

CRYSTAL
PRIMVEC
		3.04799884		0.00000000		0.24383930
		-1.52400095		2.63964714		-0.12192118
		0.98896106		0.00000000		12.36199947
PRIMECORD
   11 1
H		0.46451500		1.75976384		5.80643145		-0.00003483		-0.00017939		 0.00059470
H		2.04844486		0.87988177		6.67748828		 0.00003483		 0.00017939		-0.00059470
Mg		0.69098604		0.00000000		8.63732907		-0.00019167		-0.00027263		 0.00069119
Mg		0.29797410		0.00000000		3.72467070		 0.00019167		 0.00027263		-0.00069119
Mg		2.41416283		0.87988177		11.24895572		-0.00000896		 0.00021698		-0.00066801
Mg		0.09879704		1.75976384		1.23496401		 0.00000896		-0.00021698		 0.00066801
O		1.72159380		0.87988177		2.59184767		-0.00002108		 0.00044751		 0.00024616
O		0.79136607		1.75976384		9.89207206		 0.00002108		-0.00044751		-0.00024616
O		0.38529911		1.75976384		4.81623445		-0.00013445		-0.00020335		-0.00083133
O		2.12766076		0.87988177		7.66768436		 0.00013445		 0.00020335		 0.00083133
O		0.00000000		0.00000000		0.00000000		0.00000000		0.00000000		0.00000000
