# total energy = -8762.14296031 eV

CRYSTAL
PRIMVEC
		3.04800034		0.00000000		0.36575930
		-1.52399864		2.63964663		-0.18288119
		1.48343955		0.00000000		12.36199833
PRIMECORD
   11 1
H		0.69677201		1.75976381		5.80643180		-0.00005461		 0.00018833		-0.00028925
H		2.31066802		0.87988190		6.73844864		 0.00005461		-0.00018833		 0.00028925
Mg		1.03647981		0.00000000		8.63732961		 0.00005633		 0.00011376		-0.00038975
Mg		0.44696005		0.00000000		3.72467087		-0.00005633		-0.00011376		 0.00038975
Mg		2.85924374		0.87988190		11.30991653		 0.00020578		 0.00006684		 0.00028358
Mg		0.14819599		1.75976381		1.23496390		-0.00020578		-0.00006684		-0.00028358
O		1.82039092		0.87988190		2.65280777		-0.00020445		-0.00038860		 0.00011075
O		1.18704881		1.75976381		9.89207236		 0.00020445		 0.00038860		-0.00011075
O		0.57794790		1.75976381		4.81623484		 0.00020953		 0.00015151		 0.00051727
O		2.42949183		0.87988190		7.72864468		-0.00020953		-0.00015151		-0.00051727
O		0.00000000		0.00000000		0.00000000		0.00000000		0.00000000		0.00000000
