# total energy = -8762.06400219 eV

CRYSTAL
PRIMVEC
		3.04800115		0.00000000		0.48768154
		-1.52399903		2.63964646		-0.24383923
		1.97792059		0.00000000		12.36199908
PRIMECORD
   11 1
H		0.92902916		1.75976389		5.80643199		 0.00053088		-0.00059079		-0.00010429
H		2.57289109		0.87988195		6.79940910		-0.00053088		 0.00059079		 0.00010429
Mg		1.38197314		0.00000000		8.63732995		 0.00037126		-0.00002221		-0.00059813
Mg		0.59594715		0.00000000		3.72467098		-0.00037126		 0.00002221		 0.00059813
Mg		3.30432604		0.87988195		11.37087712		 0.00040550		 0.00041488		 0.00065288
Mg		0.19759389		1.75976389		1.23496397		-0.00040550		-0.00041488		-0.00065288
O		1.91918897		0.87988195		2.71376809		-0.00037550		-0.00024092		-0.00014099
O		1.58273189		1.75976389		9.89207300		 0.00037550		 0.00024092		 0.00014099
O		0.77059802		1.75976389		4.81623513		 0.00012692		-0.00023126		-0.00064428
O		2.73132192		0.87988195		7.78960503		-0.00012692		 0.00023126		 0.00064428
O		0.00000000		0.00000000		0.00000000		0.00000000		0.00000000		0.00000000
