# total energy = -8762.06400219 eV

CRYSTAL
PRIMVEC
		3.04800115		0.00000000		-0.48768154
		-1.52399903		2.63964646		0.24383923
		-1.97792059		0.00000000		12.36199908
PRIMECORD
   11 1
H		-0.92902916		1.75976389		5.80643199		-0.00053087		-0.00059083		-0.00010429
H		0.47510914		0.87988195		6.31172910		 0.00053087		 0.00059083		 0.00010429
Mg		-1.38197314		0.00000000		8.63732995		-0.00037121		-0.00002221		-0.00059803
Mg		-0.59594715		0.00000000		3.72467098		 0.00037121		 0.00002221		 0.00059803
Mg		-0.25632613		0.87988195		10.88319712		-0.00040548		 0.00041488		 0.00065288
Mg		-0.19759389		1.75976389		1.23496397		 0.00040548		-0.00041488		-0.00065288
O		1.12881187		0.87988195		2.22608809		 0.00037551		-0.00024090		-0.00014104
O		-1.58273189		1.75976389		9.89207300		-0.00037551		 0.00024090		 0.00014104
O		-0.77059802		1.75976389		4.81623513		-0.00012691		-0.00023126		-0.00064419
O		0.31667800		0.87988195		7.30192503		 0.00012691		 0.00023126		 0.00064419
O		0.00000000		0.00000000		0.00000000		0.00000000		0.00000000		0.00000000
