# total energy = -24712.5875149 eV	

CRYSTAL	
PRIMVEC	
		9.20099728		0.73607794		0.00000000	
		0.68967674		8.62099611		0.00000000	
		-0.97849583		-0.07828299		4.80947019	
PRIMCOORD
   40 1	
Si		2.60570574		0.99222974		1.01575986		-0.00017831		 0.00030925		-0.00001800	
Si		6.30647706		8.28657056		3.79371033		 0.00017831		-0.00030925		 0.00001800	
Si		6.23225729		1.28235401		1.38897524		 0.00024225		-0.00025744		 0.00022633	
Si		2.67992459		7.99644721		3.42049496		-0.00024225		 0.00025744		-0.00022633	
Si		7.55104552		5.67076953		1.01575986		-0.00018214		 0.00030254		-0.00002413	
Si		1.36113728		3.60803076		3.79371033		 0.00018214		-0.00030254		 0.00002413	
Si		1.97659702		5.22481402		1.38897524		 0.00025010		-0.00026602		 0.00023414	
Si		6.93558578		4.05398720		3.42049496		-0.00025010		 0.00026602		-0.00023414	
Mg		0.38001910		7.78846977		1.20236801		 0.00011399		-0.00066312		-0.00011207	
Mg		-0.66883727		0.75424982		3.60710311		-0.00011399		 0.00066312		 0.00011207	
Mg		4.63567937		3.84600976		1.20236801		 0.00011383		-0.00066335		-0.00011147	
Mg		4.27650435		5.43278961		3.60710311		-0.00011383		 0.00066335		 0.00011147	
Mg		-0.05551437		2.34430831		1.20236801		-0.00065685		 0.00049105		-0.00024028	
Mg		-0.23330380		6.19841220		3.60710311		 0.00065685		-0.00049105		 0.00024028	
Mg		4.88982633		7.02284810		1.20236801		-0.00065723		 0.00049405		-0.00023930	
Mg		4.02235555		2.25595219		3.60710311		 0.00065723		-0.00049405		 0.00023930	
O		1.04494730		0.86651174		0.66851605		-0.00028840		 0.00031912		 0.00038978	
O		7.86723458		8.41228763		4.14095414		 0.00028840		-0.00031912		-0.00038978	
O		7.79287821		1.40634684		1.73621904		 0.00011254		-0.00016442		-0.00015405	
O		1.11930460		7.87245345		3.07325207		-0.00011254		 0.00016442		 0.00015405	
O		5.99028708		5.54505246		0.66851605		-0.00027787		 0.00032071		 0.00039161	
O		2.92189481		3.73374783		4.14095414		 0.00027787		-0.00032071		-0.00039161	
O		3.53721793		5.34880685		1.73621904		 0.00010455		-0.00016161		-0.00015516	
O		5.37496487		3.92999436		3.07325207		-0.00010455		 0.00016161		 0.00015516	
O		3.30113855		2.29933136		1.76507603		 0.00023334		 0.00019441		-0.00036614	
O		5.61104333		6.97946893		3.04439509		-0.00023334		-0.00019441		 0.00036614	
O		5.73834803		2.49430778		0.63965999		 0.00010235		 0.00012676		-0.00029042	
O		3.17383478		6.78449251		4.16981113		-0.00010235		-0.00012676		 0.00029042	
O		8.24647925		6.97787115		1.76507603		 0.00023722		 0.00019935		-0.00036317	
O		0.66570263		2.30092914		3.04439509		-0.00023722		-0.00019935		 0.00036317	
O		1.48268776		6.43676780		0.63965999		 0.00009247		 0.00014432		-0.00029981	
O		7.42949505		2.84203157		4.16981113		-0.00009247		-0.00014432		 0.00029981	
O		2.43170908		0.71962199		4.40066610		 0.00010218		-0.00024364		-0.00008537	
O		6.48047372		8.55917923		0.40880501		-0.00010218		 0.00024364		 0.00008537	
O		5.38609858		0.95597274		2.81354011		-0.00012391		 0.00010145		-0.00010120	
O		3.52608331		8.32282755		1.99593008		 0.00012391		-0.00010145		 0.00010120	
O		7.37704886		5.39816178		4.40066610		 0.00010212		-0.00024111		-0.00007848	
O		1.53513302		3.88063759		0.40880501		-0.00010212		 0.00024111		 0.00007848	
O		1.13043923		4.89843275		2.81354011		-0.00012772		 0.00010061		-0.00009900	
O		7.78174266		4.38036662		1.99593008		 0.00012772		-0.00010061		 0.00009900	
