# total energy = -24706.3085748 eV	

CRYSTAL	
PRIMVEC	
		9.20100325		-1.47216462		0.00000000	
		-1.37935706		8.62100257		0.00000000	
		-0.97849548		0.15656151		4.80947239	
PRIMCOORD
   40 1	
Si		2.41638932		0.38200562		1.01576014		-0.00033821		-0.00004001		-0.00011980	
Si		4.42675394		6.92339478		3.79371039		 0.00033821		 0.00004001		 0.00011980	
Si		6.04293987		-0.19824292		1.38897513		 0.00002657		 0.00066916		 0.00026726	
Si		0.80020339		7.50364332		3.42049540		-0.00002657		-0.00066916		-0.00026726	
Si		6.32720869		3.95642553		1.01576014		-0.00027733		-0.00004300		-0.00010353	
Si		0.51593364		3.34897394		3.79371039		 0.00027733		 0.00004300		 0.00010353	
Si		0.75275972		4.84833695		1.38897513		-0.00003064		 0.00067830		 0.00024705	
Si		6.09038261		2.45706251		3.42049540		 0.00003064		-0.00067830		-0.00024705	
Mg		-1.49391103		7.84717945		1.20236763		-0.00069061		 0.00030452		-0.00026284	
Mg		-0.86394709		0.93037997		3.60710289		 0.00069061		-0.00030452		 0.00026284	
Mg		3.79626912		2.80059958		1.20236763		-0.00069449		 0.00030183		-0.00026186	
Mg		3.04687321		4.50479988		3.60710289		 0.00069449		-0.00030183		 0.00026186	
Mg		-0.62284497		2.40301795		1.20236763		 0.00000149		-0.00016482		-0.00014875	
Mg		-1.73501315		6.37454148		3.60710289		-0.00000149		 0.00016482		 0.00014875	
Mg		3.28797533		5.97743786		1.20236763		 0.00000774		-0.00016031		-0.00014656	
Mg		3.55516700		1.32796161		3.60710289		-0.00000774		 0.00016031		 0.00014656	
O		0.85583668		0.63085382		0.66851635		-0.00003040		-0.00018953		-0.00019827	
O		5.98730472		6.67454565		4.14095417		 0.00003040		 0.00018953		 0.00019827	
O		7.60376646		-0.44881495		1.73621891		 0.00048111		 0.00019843		-0.00019752	
O		-0.76062506		7.75421442		3.07325162		-0.00048111		-0.00019843		 0.00019752	
O		4.76665698		4.20527372		0.66851635		-0.00006767		-0.00018401		-0.00021309	
O		2.07648535		3.10012574		4.14095417		 0.00006767		 0.00018401		 0.00021309	
O		2.31358724		4.59776492		1.73621891		 0.00051152		 0.00018802		-0.00018491	
O		4.52955509		2.70763455		3.07325162		-0.00051152		-0.00018802		 0.00018491	
O		2.80953464		1.54638551		1.76507591		-0.00031704		 0.00006193		 0.00039797	
O		4.03360676		5.75901396		3.04439461		 0.00031704		-0.00006193		-0.00039797	
O		5.24674416		1.15643255		0.63966028		 0.00013963		-0.00003033		-0.00005863	
O		1.59639816		6.14896692		4.16981117		-0.00013963		 0.00003033		 0.00005863	
O		6.72035587		5.12080635		1.76507591		-0.00032856		 0.00004612		 0.00039044	
O		0.12278739		2.18459405		3.04439461		 0.00032856		-0.00004612		-0.00039044	
O		-0.04343599		6.20301242		0.63966028		 0.00015958		-0.00003710		-0.00005176	
O		6.88657832		1.10238705		4.16981117		-0.00015958		 0.00003710		 0.00005176	
O		2.30487675		0.14615793		4.40066626		-0.00089538		 0.00021164		-0.00042454	
O		4.53826558		7.15924153		0.40880520		 0.00089538		-0.00021164		 0.00042454	
O		5.25926666		-0.32654378		2.81353953		-0.00036619		-0.00003424		 0.00037830	
O		1.58387473		7.63194418		1.99593006		 0.00036619		 0.00003424		-0.00037830	
O		6.21569705		3.72057784		4.40066626		-0.00091415		 0.00020434		-0.00041947	
O		0.62744621		3.58482069		0.40880520		 0.00091415		-0.00020434		 0.00041947	
O		-0.03091256		4.72003609		2.81353953		-0.00035173		-0.00004046		 0.00038464	
O		6.87405489		2.58536431		1.99593006		 0.00035173		 0.00004046		-0.00038464	
