# total energy = -12336.0127875 eV

CRYSTAL
PRIMVEC
		4.44490174		0.00000000		-0.71118626
		0.00000000		4.66480136		0.00000000
		-1.03270577		0.00000000		6.45440097
PRIMECORD
   20 1
O		0.21698403		2.21811194		1.53757415		-0.00032926		-0.00014549		-0.00030270
O		3.19521193		2.44668807		4.20564191		 0.00032926		 0.00014549		 0.00030270
O		1.92308202		0.11428784		4.40918195		-0.00032926		 0.00014549		-0.00030270
O		1.48911395		4.55051307		1.33403410		 0.00032926		-0.00014549		 0.00030270
O		0.25649178		0.90450490		3.49410228		-0.00040857		 0.00004673		-0.00063277
O		3.15570419		3.76029511		2.24911422		 0.00040857		-0.00004673		 0.00063277
O		2.60720385		1.42789488		2.33687420		 0.00026972		 0.00017518		-0.00035383
O		0.80499212		3.23690513		3.40634185		-0.00026972		-0.00017518		 0.00035383
O		3.54379408		3.76029511		-0.17644996		-0.00026972		 0.00017518		 0.00035383
O		-0.13159811		0.90450490		5.91966602		 0.00026972		-0.00017518		-0.00035383
O		0.41690223		3.23690513		5.83190603		 0.00040857		 0.00004673		 0.00063277
O		2.99529419		1.42789488		-0.08868998		-0.00040857		-0.00004673		-0.00063277
Mg		2.04517085		2.71351425		1.24506413		 0.00020373		-0.00012302		 0.00001832
Mg		1.36702512		1.95128621		4.49815192		-0.00020373		 0.00012302		-0.00001832
Mg		-0.69363111		4.28368599		4.82785730		 0.00020373		 0.00012302		 0.00001832
Mg		4.10582708		0.38111402		0.91536011		-0.00020373		-0.00012302		-0.00001832
Si		1.70609798		0.00000000		2.87160825		0.00000000		0.00000000		0.00000000
Si		-0.51635199		2.33240023		3.22720003		0.00000000		-0.00000000		0.00000000
Si		2.22244997		0.00000000		-0.35559223		0.00000000		-0.00000000		0.00000000
Si		0.00000000		2.33240023		0.00000000		-0.00000000		-0.00000000		-0.00000000
