# total energy = -12336.0127875 eV

CRYSTAL
PRIMVEC
		4.44490174		0.00000000		0.71118626
		0.00000000		4.66480136		0.00000000
		1.03270577		0.00000000		6.45440097
PRIMECORD
   20 1
O		0.73333602		2.21811194		1.68962588		-0.00032914		-0.00014552		 0.00030265
O		4.74426789		2.44668807		5.47595819		 0.00032914		 0.00014552		-0.00030265
O		3.47213798		0.11428784		5.27241814		-0.00032914		 0.00014552		 0.00030265
O		2.00546594		4.55051307		1.89316593		 0.00032914		-0.00014552		-0.00030265
O		1.41745785		0.90450490		3.76193408		 0.00026991		-0.00017514		 0.00035381
O		4.06014606		3.76029511		3.40364999		-0.00026991		 0.00017514		-0.00035381
O		3.51164618		1.42789488		3.31589001		-0.00040863		-0.00004687		 0.00063281
O		1.96595819		3.23690513		3.84969406		 0.00040863		 0.00004687		-0.00063281
O		3.67205617		3.76029511		0.97808581		 0.00040863		-0.00004687		-0.00063281
O		1.80554819		0.90450490		6.18749826		-0.00040863		 0.00004687		 0.00063281
O		2.35404808		3.23690513		6.27525825		-0.00026991		-0.00017514		-0.00035381
O		3.12355584		1.42789488		0.89032583		 0.00026991		 0.00017514		 0.00035381
Mg		2.56152283		2.71351425		1.98213590		 0.00020375		-0.00012302		-0.00001840
Mg		2.91608108		1.95128621		5.18344908		-0.00020375		 0.00012302		 0.00001840
Mg		0.85542485		4.28368599		4.85374415		 0.00020375		 0.00012302		-0.00001840
Mg		4.62217907		0.38111402		2.31183992		-0.00020375		-0.00012302		 0.00001840
Si		2.73880196		0.00000000		3.58279226		0.00000000		0.00000000		0.00000000
Si		0.51635199		2.33240023		3.22720003		0.00000000		0.00000000		0.00000000
Si		2.22244997		0.00000000		0.35559223		0.00000000		0.00000000		0.00000000
Si		0.00000000		2.33240023		0.00000000		0.00000000		0.00000000		0.00000000
