# total energy = -12341.5041706 eV

CRYSTAL
PRIMVEC
		4.44490067		0.00000000		-0.53338701
		0.00000000		4.66480054		0.00000000
		-0.77452924		0.00000000		6.45440136
PRIMECORD
   20 1
O		0.28152779		2.21811188		1.55658082		-0.00071934		 0.00033935		-0.00004301
O		3.38884409		2.44668777		4.36443084		 0.00071934		-0.00033935		 0.00004301
O		2.11671396		0.11428794		4.51708710		-0.00071934		-0.00033935		-0.00004301
O		1.55365793		4.55051305		1.40392501		 0.00071934		 0.00033935		 0.00004301
O		0.40161183		0.90450519		3.52758112		-0.00002217		-0.00009080		-0.00065751
O		3.26875916		3.76029490		2.39343099		 0.00002217		 0.00009080		 0.00065751
O		2.72025896		1.42789508		2.45925098		 0.00029200		 0.00024617		-0.00061957
O		0.95011292		3.23690501		3.46176113		-0.00029200		-0.00024617		 0.00061957
O		3.55982698		3.76029490		-0.03213305		-0.00029200		 0.00024617		 0.00061957
O		0.11054490		0.90450519		5.95314471		 0.00029200		-0.00024617		-0.00061957
O		0.65904510		3.23690501		5.88732472		 0.00002217		-0.00009080		 0.00065751
O		3.01132679		1.42789508		0.03368694		-0.00002217		 0.00009080		-0.00065751
Mg		2.10971494		2.71351378		1.33719802		 0.00009532		-0.00024002		-0.00018018
Mg		1.56065694		1.95128586		4.58381409		-0.00009532		 0.00024002		 0.00018018
Mg		-0.49999912		4.28368613		4.83109176		 0.00009532		 0.00024002		-0.00018018
Mg		4.17037100		0.38111396		1.08991991		-0.00009532		-0.00024002		 0.00018018
Si		1.83518617		0.00000000		2.96050583		0.00000000		0.00000000		0.00000000
Si		-0.38726417		2.33239982		3.22719978		0.00000000		0.00000000		0.00000000
Si		2.22244989		0.00000000		-0.26669395		0.00000000		0.00000000		0.00000000
Si		0.00000000		2.33239982		0.00000000		0.00000000		0.00000000		0.00000000
