# total energy = -24712.2674704 eV	

CRYSTAL	
PRIMVEC	
		9.61327117		0.00000000		1.15359022	
		0.00000000		8.82245504		0.00000000	
		-1.03799398		0.00000000		4.71667307	
PRIMCOORD
   40 1	
Mg		2.16669504		5.76459619		1.31878178		-0.00048715		 0.00064880		 0.00006576	
Mg		6.40858312		3.05786466		4.55148926		 0.00048715		-0.00064880		-0.00006576	
Mg		6.92757914		1.35336480		2.19314982		 0.00048715		 0.00064880		-0.00006576	
Mg		1.64769998		7.46909508		3.67712122		-0.00048715		-0.00064880		 0.00006576	
Mg		2.24276547		0.10675151		1.31387095		 0.00069291		 0.00029997		 0.00018844	
Mg		6.33251172		8.71570837		4.55640009		-0.00069291		-0.00029997		-0.00018844	
Mg		6.85150677		4.51798194		2.19806065		-0.00069291		 0.00029997		-0.00018844	
Mg		1.72377139		4.30447794		3.67220942		 0.00069291		-0.00029997		 0.00018844	
Si		0.13491521		2.99610651		1.45839384		-0.00004059		-0.00016585		 0.00002347	
Si		8.44036295		5.82635241		4.41187720		 0.00004059		 0.00016585		-0.00002347	
Si		8.95935898		7.40733693		2.05353679		 0.00004059		-0.00016585		-0.00002347	
Si		-0.38407985		1.41512295		3.81673425		-0.00004059		 0.00016585		 0.00002347	
Si		5.07942198		7.39057504		1.70461895		 0.00014308		 0.00055471		-0.00007211	
Si		3.49585714		1.43188484		4.16565208		-0.00014308		-0.00055471		 0.00007211	
Si		4.01485220		2.97934462		1.80731264		-0.00014308		 0.00055471		 0.00007211	
Si		4.56042596		5.84311526		4.06295743		 0.00014308		-0.00055471		-0.00007211	
O		8.15985400		3.00757705		1.88885064		-0.00017736		-0.00013845		-0.00034405	
O		0.41542512		5.81488283		3.98141943		 0.00017736		 0.00013845		 0.00034405	
O		0.93442018		7.41880651		1.62308096		 0.00017736		-0.00013845		 0.00034405	
O		7.64085798		1.40365337		4.24719008		-0.00017736		 0.00013845		-0.00034405	
O		0.86963245		4.41652274		1.65742482		 0.00008912		-0.00020418		 0.00023520	
O		7.70564571		4.40593714		4.21284621		-0.00008912		 0.00020418		-0.00023520	
O		8.22464173		0.00529328		1.85450677		-0.00008912		-0.00020418		-0.00023520	
O		0.35063740		8.81716660		4.01576426		 0.00008912		 0.00020418		 0.00023520	
O		0.36816709		2.47911083		3.00798564		-0.00012795		 0.00034001		 0.00050514	
O		8.20711204		6.34334905		2.86228442		 0.00012795		-0.00034001		-0.00050514	
O		7.68811602		6.89034223		5.22062387		 0.00012795		 0.00034001		-0.00050514	
O		0.88716311		1.93211862		0.64964620		-0.00012795		-0.00034001		 0.00050514	
O		3.46912545		7.39233914		1.03645838		-0.00022658		-0.00014733		 0.00079692	
O		5.10615271		1.43012074		4.83381266		 0.00022658		 0.00014733		-0.00079692	
O		5.62514873		2.98110872		2.47547419		 0.00022658		-0.00014733		-0.00079692	
O		2.95012943		5.84135116		3.39479685		-0.00022658		 0.00014733		 0.00079692	
O		5.71087042		8.61425013		2.61502234		 0.00014249		 0.00005150		 0.00093740	
O		2.86440774		0.20820975		3.25524869		-0.00014249		-0.00005150		-0.00093740	
O		3.38340279		4.20301971		0.89691022		-0.00014249		 0.00005150		-0.00093740	
O		5.19187440		4.61944017		4.97336082		 0.00014249		-0.00005150		 0.00093740	
O		5.34300542		6.13161012		2.81148753		-0.00008137		 0.00061176		 0.00037495	
O		3.23227178		2.69084976		3.05878254		 0.00008137		-0.00061176		-0.00037495	
O		3.75126780		1.72037970		0.70044406		 0.00008137		 0.00061176		-0.00037495	
O		4.82401036		7.10208115		5.16982697		-0.00008137		-0.00061176		 0.00037495	
