# total energy = -24710.2504671 eV	

CRYSTAL	
PRIMVEC	
		9.61327310		0.00000000		1.53811824	
		0.00000000		8.82245504		0.00000000	
		-0.84151102		0.00000000		4.65158344	
PRIMCOORD
   40 1	
Mg		2.20966521		5.76459536		1.40029413		 0.00032216		 0.00026718		 0.00019078	
Mg		6.56209200		3.05786455		4.78941048		-0.00032216		-0.00026718		-0.00019078	
Mg		6.98284752		1.35336492		2.46361973		-0.00032216		 0.00026718		-0.00019078	
Mg		1.78890872		7.46909499		3.72608390		 0.00032216		-0.00026718		 0.00019078	
Mg		2.28516725		0.10675216		1.39849402		 0.00001451		 0.00016612		 0.00057591	
Mg		6.48658996		8.71570872		4.79121058		-0.00001451		-0.00016612		-0.00057591	
Mg		6.90734644		4.51798163		2.46541984		-0.00001451		 0.00016612		-0.00057591	
Mg		1.86440979		4.30447828		3.72428380		 0.00001451		-0.00016612		 0.00057591	
Si		0.19344619		2.99610714		1.45676708		 0.00046384		 0.00044203		 0.00008388	
Si		8.57831102		5.82635277		4.73293655		-0.00046384		-0.00044203		-0.00008388	
Si		8.99906653		7.40733661		2.40714678		-0.00046384		 0.00044203		-0.00008388	
Si		-0.22731030		1.41512330		3.78255783		 0.00046384		-0.00044203		 0.00008388	
Si		5.12386431		7.39057493		1.90246213		 0.00015159		-0.00023387		-0.00005078	
Si		3.64789192		1.43188499		4.28724150		-0.00015159		 0.00023387		 0.00005078	
Si		4.06864744		2.97934448		1.96145173		-0.00015159		-0.00023387		 0.00005078	
Si		4.70310880		5.84311445		4.22825288		 0.00015159		 0.00023387		-0.00005078	
O		8.19677124		3.00757658		2.21081497		-0.00017965		 0.00002589		-0.00016982	
O		0.57498499		5.81488236		3.97888964		 0.00017965		-0.00002589		 0.00016982	
O		0.99574050		7.41880702		1.65309889		 0.00017965		 0.00002589		 0.00016982	
O		7.77601573		1.40365289		4.53660572		-0.00017965		-0.00002589		-0.00016982	
O		0.93266295		4.41652268		1.68464691		 0.00007716		-0.00007540		-0.00015113	
O		7.83909328		4.40593723		4.50505770		-0.00007716		 0.00007540		 0.00015113	
O		8.25985074		0.00529321		2.17926695		-0.00007716		-0.00007540		 0.00015113	
O		0.51190744		8.81716670		4.01043669		 0.00007716		 0.00007540		-0.00015113	
O		0.48845063		2.47911093		3.00827754		-0.00005238		 0.00050139		-0.00004754	
O		8.28330561		6.34334898		3.18142610		 0.00005238		-0.00050139		 0.00004754	
O		7.86255010		6.89034137		5.50721685		 0.00005238		 0.00050139		 0.00004754	
O		0.90920809		1.93211854		0.68248776		-0.00005238		-0.00050139		-0.00004754	
O		3.49429526		7.39233901		1.17220207		 0.00026570		 0.00041622		-0.00024520	
O		5.27746293		1.43012091		5.01750157		-0.00026570		-0.00041622		 0.00024520	
O		5.69821844		2.98110856		2.69171180		-0.00026570		 0.00041622		 0.00024520	
O		3.07353780		5.84135037		3.49799281		 0.00026570		-0.00041622		-0.00024520	
O		5.78918637		8.61424977		2.83405905		 0.00010481		-0.00033848		-0.00016998	
O		2.98256987		0.20821014		3.35564556		-0.00010481		 0.00033848		 0.00016998	
O		3.40332538		4.20301933		1.02985482		-0.00010481		-0.00033848		 0.00016998	
O		5.36843086		4.61943961		5.15984882		 0.00010481		 0.00033848		-0.00016998	
O		5.43108783		6.13160971		3.01463777		 0.00047845		 0.00003500		 0.00014644	
O		3.34066938		2.69085020		3.17506684		-0.00047845		-0.00003500		-0.00014644	
O		3.76142587		1.72038024		0.84927609		-0.00047845		 0.00003500		-0.00014644	
O		5.01033037		7.10208064		5.34042852		 0.00047845		-0.00003500		 0.00014644	
