# total energy = -18279.2442464 eV	

CRYSTAL	
PRIMVEC	
		5.86959964		0.00000000		0.00000000	
		-2.93479982		4.62111231		0.00000000	
		0.00000000		0.00000000		14.61400004	
PRIMCOORD
   28 1	
Mg		1.94870708		0.00000000		3.19754305		 0.00013406		-0.00000000		 0.00017934	
Mg		-0.97435413		1.53420887		3.19754305		-0.00005484		-0.00029450		-0.00009635	
Mg		1.96044569		3.08690169		3.19754305		-0.00005484		 0.00029450		-0.00009635	
Mg		3.92089256		0.00000000		10.50454307		-0.00013406		0.00000000		 0.00017934	
Mg		-1.96044569		3.08690169		10.50454307		 0.00005484		 0.00029450		-0.00009635	
Mg		0.97435413		1.53420887		10.50454307		 0.00005484		-0.00029450		-0.00009635	
Si		0.00000000		3.08074096		0.42672870		-0.00007968		-0.00024217		-0.00005137	
Si		2.93479982		1.54037018		7.73372872		 0.00007968		 0.00024217		-0.00005137	
Si		0.00000000		3.08074096		7.73372872		 0.00007968		-0.00024217		-0.00005137	
Si		2.93479982		1.54037077		0.42672870		-0.00007968		 0.00024217		-0.00005137	
O		0.00000000		3.08074096		2.05472790		-0.00001084		 0.00019495		 0.00028345	
O		2.93479982		1.54037018		9.36172733		 0.00001084		-0.00019495		 0.00028345	
O		0.00000000		3.08074096		9.36172733		 0.00001084		 0.00019495		 0.00028345	
O		2.93479982		1.54037077		2.05472790		-0.00001084		-0.00019495		 0.00028345	
O		2.89958163		0.00000000		14.48247288		 0.00003837		-0.00000000		 0.00003338	
O		-1.44979111		2.28282876		14.48247288		-0.00024594		 0.00033715		-0.00026290	
O		1.48500871		2.33828297		14.48247288		-0.00024594		-0.00033715		-0.00026290	
O		2.97001800		0.00000000		7.17547344		-0.00003837		0.00000000		 0.00003338	
O		-1.48500871		2.33828297		7.17547344		 0.00024594		-0.00033715		-0.00026290	
O		1.44979111		2.28282876		7.17547344		 0.00024594		 0.00033715		-0.00026290	
O		3.91306662		0.00000000		4.17814302		-0.00032378		-0.00000000		-0.00014744	
O		-1.95653302		3.08074096		4.17814302		-0.00023411		-0.00015109		 0.00000175	
O		0.97826680		1.54037018		4.17814302		-0.00023411		 0.00015109		 0.00000175	
O		1.95653302		0.00000000		11.48514245		 0.00032378		0.00000000		-0.00014744	
O		-0.97826680		1.54037018		11.48514245		 0.00023411		 0.00015109		 0.00000175	
O		1.95653302		3.08074096		11.48514245		 0.00023411		-0.00015109		 0.00000175	
O		0.00000000		0.00000000		2.10441582		-0.00015571		0.00000000		 0.00018555	
O		0.00000000		0.00000000		9.41141525		 0.00015571		-0.00000000		 0.00018555	
