# total energy = -9215.25968403 eV	

CRYSTAL	
PRIMVEC	
		5.32599971		0.00000000		0.00000000	
		-2.66299986		4.61244890		0.00000000	
		0.00000000		0.00000000		7.28800214	
PRIMCOORD
   18 1	
Mg		1.76716670		0.00000000		3.31603985		 0.00018157		-0.00000000		-0.00011760	
Mg		-0.88358282		1.53041110		3.31603985		-0.00009078		 0.00015724		-0.00011760	
Mg		1.77941704		3.08203993		3.31603985		-0.00009078		-0.00015724		-0.00011760	
Si		0.00000000		3.07496806		0.53931180		-0.00000000		0.00000000		-0.00015962	
Si		2.66299986		1.53748403		0.53931180		0.00000000		-0.00000000		-0.00015962	
H		3.10505783		0.00000000		5.33481584		-0.00017646		-0.00000000		 0.00054446	
H		-1.55252892		2.68905891		5.33481584		 0.00008823		-0.00015282		 0.00054446	
H		1.11047094		1.92339212		5.33481584		 0.00008823		 0.00015282		 0.00054446	
H		0.00000000		0.00000000		1.43573613		0.00000000		0.00000000		 0.00065917	
O		0.00000000		3.07496806		2.12153689		0.00000000		0.00000000		-0.00014652	
O		2.66299986		1.53748403		2.12153689		0.00000000		0.00000000		-0.00014652	
O		2.70028185		0.00000000		7.22969575		 0.00057633		-0.00000000		-0.00014348	
O		-1.35014093		2.33851279		7.22969575		-0.00028816		 0.00049911		-0.00014348	
O		1.31285893		2.27393771		7.22969575		-0.00028816		-0.00049911		-0.00014348	
O		3.53646381		0.00000000		4.28534357		 0.00036015		0.00000000		-0.00041142	
O		-1.76823190		3.06266767		4.28534357		-0.00018007		 0.00031190		-0.00041142	
O		0.89476795		1.54978390		4.28534357		-0.00018007		-0.00031190		-0.00041142	
O		0.00000000		0.00000000		2.21555197		0.00000000		0.00000000		 0.00033722	
