# total energy = -24716.1476487 eV	

CRYSTAL	
PRIMVEC	
		9.61326956		0.00000000		0.00000000	
		0.00000000		8.82246278		-0.35289351	
		-1.62743040		-0.19647600		4.91196737	
PRIMCOORD
   40 1	
Mg		2.03778627		5.72162578		0.84366438		 0.00004544		 0.00027772		-0.00000676	
Mg		5.94805577		2.90435619		3.71540660		-0.00004544		-0.00027772		 0.00000676	
Mg		6.76177001		1.29809613		1.32760310		 0.00050291		 0.00054102		-0.00022695	
Mg		1.22407203		7.32788488		3.23146884		-0.00050291		-0.00054102		 0.00022695	
Mg		2.11556628		0.06435219		1.05573311		-0.00003385		-0.00000605		-0.00030149	
Mg		5.87027576		8.56162978		3.50333787		 0.00003385		 0.00000605		 0.00030149	
Mg		6.68399000		4.46214134		1.21526339		 0.00041250		 0.00032885		 0.00070980	
Mg		1.30185204		4.16383870		3.34380854		-0.00041250		-0.00032885		-0.00070980	
Si		-0.04067759		2.93757581		1.34343135		 0.00026555		-0.00000214		-0.00014028	
Si		8.02651963		5.68840520		3.21563963		-0.00026555		 0.00000214		 0.00014028	
Si		8.84023387		7.36762902		0.69641601		 0.00085521		 0.00009376		-0.00042365	
Si		-0.85439087		1.25835199		3.86265593		-0.00085521		-0.00009376		 0.00042365	
Si		4.94609063		7.34613086		0.81546482		-0.00006391		 0.00091417		 0.00008135	
Si		3.03975044		1.27985015		3.74360712		 0.00006391		-0.00091417		-0.00008135	
Si		3.85346468		2.92554864		1.22572359		 0.00001347		-0.00039219		 0.00013581	
Si		4.13237736		5.70043140		3.33334738		-0.00001347		 0.00039219		-0.00013581	
O		8.04909831		2.97065795		0.80265610		-0.00004237		-0.00027732		 0.00000030	
O		-0.06325724		5.65532306		3.75641488		 0.00004237		 0.00027732		-0.00000030	
O		0.75045700		7.35748605		1.23627319		 0.00072668		 0.00013953		-0.00033365	
O		7.23538503		1.26849591		3.32279778		-0.00072668		-0.00013953		 0.00033365	
O		0.68054066		4.35349313		1.39909891		 0.00067774		 0.00044156		 0.00001754	
O		7.30530042		4.27248788		3.15997207		-0.00067774		-0.00044156		-0.00001754	
O		8.11901466		-0.02991553		0.88001312		-0.00045018		 0.00053795		 0.00005330	
O		-0.13317262		8.65589654		3.67905786		 0.00045018		-0.00053795		-0.00005330	
O		0.00731378		2.35882718		2.90794386		 0.00018705		 0.00011405		 0.00057238	
O		7.97852730		6.26715383		1.65112807		-0.00018705		-0.00011405		-0.00057238	
O		7.16481402		6.71590798		4.08523292		-0.00034187		 0.00047204		-0.00036495	
O		0.82102802		1.91007399		0.47383806		 0.00034187		-0.00047204		 0.00036495	
O		3.39361874		7.36716950		0.33353046		-0.00085986		-0.00029463		-0.00001346	
O		4.59222234		1.25881054		4.22554147		 0.00085986		 0.00029463		 0.00001346	
O		5.40593658		2.90803904		1.70751663		 0.00034165		 0.00035684		-0.00033226	
O		2.57990450		5.71794293		2.85155435		-0.00034165		-0.00035684		 0.00033226	
O		5.47592118		8.53593351		1.61334120		-0.00046060		-0.00041411		-0.00021717	
O		2.50992086		0.09004846		2.94572978		 0.00046060		 0.00041411		 0.00021717	
O		3.32363510		4.18309697		0.32995337		 0.00073393		-0.00010685		-0.00053491	
O		4.66220790		4.44288404		4.22911761		-0.00073393		 0.00010685		 0.00053491	
O		5.07876145		6.04352803		1.95677237		 0.00088333		 0.00002051		-0.00015033	
O		2.90707963		2.58245298		2.60229957		-0.00088333		-0.00002051		 0.00015033	
O		3.72079387		1.71022180		0.18513427		-0.00011223		-0.00015049		 0.00066160	
O		4.26504817		6.91575920		4.37393767		 0.00011223		 0.00015049		-0.00066160	
