# total energy = -24710.2691193 eV	

CRYSTAL	
PRIMVEC	
		9.61326956		0.00000000		0.00000000	
		0.00000000		8.82246278		1.05869015	
		-1.62743040		0.58943762		4.91196737	
PRIMCOORD
   40 1	
Mg		2.03778627		5.89350431		1.76599895		 0.00019580		 0.00005259		 0.00020589	
Mg		5.94805577		3.51839129		4.20466626		-0.00019580		-0.00005259		-0.00020589	
Mg		6.76177001		1.51917345		1.54414104		-0.00011298		-0.00000094		-0.00018465	
Mg		1.22407203		7.89272310		4.42652418		 0.00011298		 0.00000094		 0.00018465	
Mg		2.11556628		0.23395237		1.07281300		 0.00068349		-0.00038979		-0.00050868	
Mg		5.87027576		9.17794418		4.89785221		-0.00068349		 0.00038979		 0.00050868	
Mg		6.68399000		4.68549989		1.93813993		-0.00063514		 0.00042954		 0.00001694	
Mg		1.30185204		4.72639666		4.03252529		 0.00063514		-0.00042954		-0.00001694	
Si		-0.04067759		3.17170122		1.82280857		-0.00024620		 0.00009831		-0.00003440	
Si		8.02651963		6.24019534		4.14785664		 0.00024620		-0.00009831		 0.00003440	
Si		8.84023387		7.52646138		1.88158987		-0.00004201		 0.00003923		 0.00009207	
Si		-0.85439087		1.88543422		4.08907438		 0.00004201		-0.00003923		-0.00009207	
Si		4.94609063		7.52390425		1.99795657		 0.00063479		 0.00028253		 0.00011483	
Si		3.03975044		1.88799135		3.97270864		-0.00063479		-0.00028253		-0.00011483	
Si		3.85346468		3.14073303		1.70241871		-0.00017221		 0.00022905		 0.00024262	
Si		4.13237736		6.27116352		4.26824554		 0.00017221		-0.00022905		-0.00024262	
O		8.04909831		3.11833219		1.28386753		-0.00037340		 0.00000972		 0.00029504	
O		-0.06325724		6.29356436		4.68679672		 0.00037340		-0.00000972		-0.00029504	
O		0.75045700		7.60276959		2.42328319		 0.00011079		-0.00002562		 0.00015212	
O		7.23538503		1.80912697		3.54738202		-0.00011079		 0.00002562		-0.00015212	
O		0.68054066		4.60561458		2.10574248		 0.00020247		 0.00026519		 0.00061259	
O		7.30530042		4.80628197		3.86492178		-0.00020247		-0.00026519		-0.00061259	
O		8.11901466		0.11091983		0.88086004		-0.00025733		 0.00010323		 0.00054564	
O		-0.13317262		9.30097577		5.08980517		 0.00025733		-0.00010323		-0.00054564	
O		0.00731378		2.83996363		3.30460082		-0.00071173		 0.00026820		-0.00000317	
O		7.97852730		6.57193196		2.66606343		 0.00071173		-0.00026820		 0.00000317	
O		7.16481402		7.41364293		5.18768748		-0.00008429		 0.00012699		-0.00016356	
O		0.82102802		1.99825362		0.78297677		 0.00008429		-0.00012699		 0.00016356	
O		3.39361874		7.46784543		1.51630389		 0.00045325		-0.00093347		 0.00007602	
O		4.59222234		1.94405113		4.45436036		-0.00045325		 0.00093347		-0.00007602	
O		5.40593658		3.20032088		2.18449534		 0.00005015		-0.00027876		 0.00000083	
O		2.57990450		6.21157567		3.78616987		-0.00005015		 0.00027876		-0.00000083	
O		5.47592118		8.84919920		2.99162065		-0.00000214		 0.00000888		 0.00086583	
O		2.50992086		0.56269735		2.97904361		 0.00000214		-0.00000888		-0.00086583	
O		3.32363510		4.26278905		1.00243618		 0.00033304		 0.00013275		-0.00007141	
O		4.66220790		5.14910751		4.96822903		-0.00033304		-0.00013275		 0.00007141	
O		5.07876145		6.39585340		2.93782864		 0.00013064		 0.00025597		-0.00023986	
O		2.90707963		3.01604220		3.03283562		-0.00013064		-0.00025597		 0.00023986	
O		3.72079387		1.75085421		0.46039390		-0.00016331		 0.00047720		-0.00037092	
O		4.26504817		7.66104234		5.51027035		 0.00016331		-0.00047720		 0.00037092	
