# total energy = -34522.851199 eV	

CRYSTAL	
PRIMVEC	
		9.34400334		0.00000000		1.49504470	
		0.00000000		5.30800436		0.00000000	
		1.64451037		0.00000000		13.20442864	
PRIMCOORD
   56 1	
Si		2.02863667		2.54147000		5.02370069		-0.00013874		-0.00012411		 0.00012412	
Si		8.95986757		2.76652963		9.67576887		 0.00013874		 0.00012411		-0.00012412	
Si		8.13761522		2.54147000		3.07355360		 0.00013787		-0.00011616		-0.00009516	
Si		2.85088997		2.76652963		11.62591595		-0.00013787		 0.00011616		 0.00009516	
Si		6.70063645		5.19547029		5.77122114		-0.00013897		-0.00012456		 0.00012547	
Si		4.28786779		0.11253029		8.92824841		 0.00013897		 0.00012456		-0.00012547	
Si		3.46561639		5.19547029		2.32603409		 0.00013768		-0.00011631		-0.00009524	
Si		7.52288974		0.11253029		12.37343546		-0.00013768		 0.00011631		 0.00009524	
Mg		5.49425307		2.65400029		7.34973478		0.00000000		0.00000000		0.00000000	
Mg		4.67199978		2.65400029		0.74752046		0.00000000		0.00000000		0.00000000	
Mg		0.82225329		0.00000000		6.60221527		0.00000000		0.00000000		0.00000000	
Mg		0.00000000		0.00000000		0.00000000		0.00000000		0.00000000		0.00000000	
O		1.25747140		1.13432001		5.04512647		-0.00004200		 0.00017307		 0.00045161	
O		9.73103379		4.17367962		9.65434309		 0.00004200		-0.00017307		-0.00045161	
O		8.90878050		1.13432001		3.05212782		 0.00004445		 0.00016913		-0.00045641	
O		2.07972375		4.17367962		11.64734173		-0.00004445		-0.00016913		 0.00045641	
O		5.92947118		3.78832030		5.79264692		-0.00004187		 0.00017332		 0.00045143	
O		5.05903401		1.51968027		8.90682263		 0.00004187		-0.00017332		-0.00045143	
O		4.23678072		3.78832030		2.30460831		 0.00004455		 0.00016913		-0.00045641	
O		6.75172352		1.51968027		12.39486314		-0.00004455		-0.00016913		 0.00045641	
O		3.56483151		2.43743357		6.06395905		-0.00003809		 0.00082425		-0.00028534	
O		7.42367368		2.87056606		8.63551050		 0.00003809		-0.00082425		 0.00028534	
O		6.60142133		2.43743357		2.03329618		 0.00003444		 0.00082278		 0.00027954	
O		4.38708480		2.87056606		12.66617337		-0.00003444		-0.00082278		-0.00027954	
O		8.23683223		5.09143385		6.81147856		-0.00003822		 0.00082428		-0.00028548	
O		2.75167390		0.21656578		7.88799099		 0.00003822		-0.00082428		 0.00028548	
O		1.92942061		5.09143385		1.28577572		 0.00003452		 0.00082284		 0.00027949	
O		9.05908458		0.21656578		13.41369383		-0.00003452		-0.00082284		-0.00027949	
O		1.31039427		3.65933507		5.72007161		-0.00035870		 0.00056970		 0.00049438	
O		9.67811187		1.64866456		8.97939794		 0.00035870		-0.00056970		-0.00049438	
O		8.85585858		3.65933507		2.37718267		 0.00036193		 0.00057348		-0.00049913	
O		2.13264567		1.64866456		12.32228688		-0.00036193		-0.00057348		 0.00049913	
O		5.98239310		1.00533478		6.46759207		-0.00035856		 0.00056953		 0.00049425	
O		5.00611209		4.30266485		8.23187748		 0.00035856		-0.00056953		-0.00049425	
O		4.18385880		1.00533478		1.62966316		 0.00036204		 0.00057356		-0.00049912	
O		6.80464544		4.30266485		13.06980639		-0.00036204		-0.00057356		 0.00049912	
O		1.99124139		3.11208064		3.58369096		 0.00020241		 0.00000517		-0.00005507	
O		8.99726379		2.19591994		11.11577859		-0.00020241		-0.00000517		 0.00005507	
O		8.17501050		3.11208064		4.51356427		-0.00019994		-0.00000185		 0.00002968	
O		2.81349374		2.19591994		10.18590623		 0.00019994		 0.00000185		-0.00002968	
O		6.66324117		0.45808035		4.33121047		 0.00020249		 0.00000547		-0.00005618	
O		4.32526402		4.84992023		10.36825908		-0.00020249		-0.00000547		 0.00005618	
O		3.50301073		0.45808035		3.76604381		-0.00019996		-0.00000173		 0.00002981	
O		7.48549351		4.84992023		10.93342574		 0.00019996		 0.00000173		-0.00002981	
Ca		1.78141127		2.54784039		1.44223822		-0.00005092		-0.00016743		-0.00017972	
Ca		9.20709486		2.76016019		13.25723133		 0.00005092		 0.00016743		 0.00017972	
Ca		8.38484157		2.54784039		6.65501795		 0.00005065		-0.00016679		 0.00018423	
Ca		2.60366267		2.76016019		8.04445255		-0.00005065		 0.00016679		-0.00018423	
Ca		6.45341105		5.20183973		2.18975773		-0.00005092		-0.00016742		-0.00017977	
Ca		4.53509509		0.10615990		12.50971182		 0.00005092		 0.00016742		 0.00017977	
Ca		3.71284179		5.20183973		5.90749750		 0.00005077		-0.00016680		 0.00018428	
Ca		7.27566434		0.10615990		8.79197300		-0.00005077		 0.00016680		-0.00018428	
Ca		0.41112570		4.93166314		3.30110763		-0.00000114		-0.00036126		 0.00000288	
Ca		1.23337899		0.37633743		9.90332290		 0.00000114		 0.00036126		-0.00000288	
Ca		5.08312548		2.27766285		4.04862809		-0.00000122		-0.00036120		 0.00000293	
Ca		5.90537877		3.03033678		10.65084241		 0.00000122		 0.00036120		-0.00000293	
