# total energy = -34526.7006975 eV	

CRYSTAL	
PRIMVEC	
		9.34400121		0.00000000		-1.12127789	
		0.00000000		5.30800313		0.00000000	
		-2.07425822		0.00000000		13.33896718	
PRIMCOORD
   56 1	
Si		0.67831642		2.54147004		4.67173427		 0.00004064		-0.00012860		 0.00003779	
Si		6.59142187		2.76653026		7.54595690		-0.00004064		 0.00012860		-0.00003779	
Si		7.62855286		2.54147004		0.87647237		-0.00004864		-0.00013457		-0.00004429	
Si		-0.35881457		2.76653026		11.34121881		 0.00004864		 0.00013457		 0.00004429	
Si		5.35031609		5.19546972		4.11109345		 0.00018002		-0.00017869		 0.00005333	
Si		1.91942315		0.11252964		8.10659679		-0.00018002		 0.00017869		-0.00005333	
Si		2.95655414		5.19546972		1.43711226		-0.00019482		-0.00018588		-0.00005886	
Si		4.31318510		0.11252964		10.78057892		 0.00019482		 0.00018588		 0.00005886	
Mg		3.63486868		2.65399968		6.10884559		0.00000000		0.00000000		0.00000000	
Mg		4.67199967		2.65399968		-0.56063988		0.00000000		0.00000000		0.00000000	
Mg		-1.03713099		0.00000000		6.66948547		0.00000000		0.00000000		0.00000000	
Mg		0.00000000		0.00000000		0.00000000		0.00000000		0.00000000		0.00000000	
O		-0.13446300		1.13431970		4.91574456		 0.00024487		-0.00021193		-0.00025348	
O		7.40420129		4.17367966		7.30194568		-0.00024487		 0.00021193		 0.00025348	
O		8.44133134		1.13431970		0.63246115		-0.00024492		-0.00021180		 0.00025471	
O		-1.17159399		4.17367966		11.58523097		 0.00024492		 0.00021180		-0.00025471	
O		4.53753667		3.78832032		4.35510467		 0.00022638		-0.00022624		-0.00025014	
O		2.73220163		1.51967998		7.86258556		-0.00022638		 0.00022624		 0.00025014	
O		3.76933168		3.78832032		1.19310103		-0.00022509		-0.00022705		 0.00025101	
O		3.50040567		1.51967998		11.02459109		 0.00022509		 0.00022705		-0.00025101	
O		1.98621515		2.43743386		5.31838350		 0.00038822		-0.00046476		 0.00005636	
O		5.28352314		2.87056550		6.89930674		-0.00038822		 0.00046476		-0.00005636	
O		6.32065413		2.43743386		0.22982126		-0.00037989		-0.00046192		-0.00005257	
O		0.94908510		2.87056550		11.98786992		 0.00037989		 0.00046192		 0.00005257	
O		6.65821482		5.09143354		4.75774362		 0.00027749		-0.00043368		 0.00001690	
O		0.61152253		0.21656582		7.45994662		-0.00027749		 0.00043368		-0.00001690	
O		1.64865352		5.09143354		0.79046115		-0.00026469		-0.00042960		-0.00001166	
O		5.62108383		0.21656582		11.42723003		 0.00026469		 0.00042960		 0.00001166	
O		-0.27305745		3.65933455		5.60651366		-0.00025148		-0.00008632		 0.00009860	
O		7.54279574		1.64866482		6.61117658		 0.00025148		 0.00008632		-0.00009860	
O		8.57992673		3.65933455		-0.05830890		 0.00025142		-0.00008608		-0.00009820	
O		-1.31018750		1.64866482		12.27599914		-0.00025142		 0.00008608		 0.00009820	
O		4.39894222		1.00533486		5.04587378		-0.00028042		-0.00005755		 0.00011921	
O		2.87079607		4.30266450		7.17181646		 0.00028042		 0.00005755		-0.00011921	
O		3.90792706		1.00533486		0.50233099		 0.00028182		-0.00005574		-0.00012025	
O		3.36181217		4.30266450		11.71535925		-0.00028182		 0.00005574		 0.00012025	
O		1.05299706		3.11208092		3.17626230		 0.00027318		-0.00036675		 0.00008770	
O		6.21674218		2.19592033		9.04142794		-0.00027318		 0.00036675		-0.00008770	
O		7.25387317		3.11208092		2.37194246		-0.00027374		-0.00036520		-0.00008414	
O		0.01586607		2.19592033		9.84574778		 0.00027374		 0.00036520		 0.00008414	
O		5.72499578		0.45808030		2.61562148		 0.00026099		-0.00036553		 0.00008198	
O		1.54474157		4.84992001		9.60206782		-0.00026099		 0.00036553		-0.00008198	
O		2.58187256		0.45808030		2.93258329		-0.00026092		-0.00036430		-0.00007951	
O		4.68786573		4.84992001		9.28510789		 0.00026092		 0.00036430		 0.00007951	
Ca		1.44887887		2.54784037		0.99664754		-0.00042196		-0.00027901		-0.00052078	
Ca		5.82085942		2.76015993		11.22104270		 0.00042196		 0.00027901		 0.00052078	
Ca		6.85798947		2.54784037		4.55155817		 0.00042221		-0.00027941		 0.00051996	
Ca		0.41174788		2.76015993		7.66613395		-0.00042221		 0.00027941		-0.00051996	
Ca		6.12087854		5.20184005		0.43600765		-0.00040433		-0.00028153		-0.00051799	
Ca		1.14885975		0.10616025		11.78168259		 0.00040433		 0.00028153		 0.00051799	
Ca		2.18599074		5.20184005		5.11219805		 0.00040513		-0.00028194		 0.00051715	
Ca		5.08374755		0.10616025		7.10549407		-0.00040513		 0.00028194		-0.00051715	
Ca		-0.51856502		4.93166238		3.33474321		 0.00000025		-0.00066635		-0.00000053	
Ca		-1.55569602		0.37633698		10.00422774		-0.00000025		 0.00066635		 0.00000053	
Ca		4.15343464		2.27766270		2.77410332		 0.00000002		-0.00066121		-0.00000017	
Ca		3.11630365		3.03033666		9.44358786		-0.00000002		 0.00066121		 0.00000017	
