# total energy = -34523.1327792 eV	

CRYSTAL	
PRIMVEC	
		9.34400334		0.00000000		-1.49504470	
		0.00000000		5.30800436		0.00000000	
		-2.60550982		0.00000000		13.35819045	
PRIMCOORD
   56 1	
Si		0.48541284		2.54147000		4.62145303		-0.00038556		 0.00007615		-0.00016167	
Si		6.25307311		2.76652963		7.24169934		 0.00038556		-0.00007615		 0.00016167	
Si		7.55582991		2.54147000		0.56260317		 0.00043507		 0.00009145		 0.00015389	
Si		-0.81734397		2.76652963		11.30054920		-0.00043507		-0.00009145		-0.00015389	
Si		5.15741261		5.19547029		3.87393257		-0.00041818		 0.00008506		-0.00015274	
Si		1.58107333		0.11253029		7.98921885		 0.00041818		-0.00008506		 0.00015274	
Si		2.88383014		5.19547029		1.31012268		 0.00036914		 0.00006999		 0.00016094	
Si		3.85465581		0.11253029		10.55302780		-0.00036914		-0.00006999		-0.00016094	
Mg		3.36924297		2.65400029		5.93157571		0.00000000		0.00000000		0.00000000	
Mg		4.67199978		2.65400029		-0.74752046		0.00000000		0.00000000		0.00000000	
Mg		-1.30275680		0.00000000		6.67909617		0.00000000		0.00000000		0.00000000	
Mg		0.00000000		0.00000000		0.00000000		0.00000000		0.00000000		0.00000000	
O		-0.33331081		1.13432001		4.89726191		-0.00016608		 0.00020396		-0.00005878	
O		7.07179676		4.17367962		6.96588952		 0.00016608		-0.00020396		 0.00005878	
O		8.37455356		1.13432001		0.28679430		 0.00015587		 0.00021111		 0.00006105	
O		-1.63606762		4.17367962		11.57635808		-0.00015587		-0.00021111		-0.00006105	
O		4.33868896		3.78832030		4.14974240		-0.00015797		 0.00020938		-0.00006076	
O		2.39979698		1.51968027		7.71340998		 0.00015797		-0.00020938		 0.00006076	
O		3.70255379		3.78832030		1.03431381		 0.00016798		 0.00020247		 0.00005835	
O		3.03593216		1.51968027		10.82883762		-0.00016798		-0.00020247		-0.00005835	
O		1.76069899		2.43743357		5.21187414		 0.00072959		 0.00018950		 0.00022008	
O		4.97778695		2.87056606		6.65127824		-0.00072959		-0.00018950		-0.00022008	
O		6.28054375		2.43743357		-0.02781793		-0.00076727		 0.00017746		-0.00023139	
O		0.45794219		2.87056606		11.89096936		 0.00076727		-0.00017746		 0.00023139	
O		6.43269877		5.09143385		4.46435368		 0.00075383		 0.00018180		 0.00022722	
O		0.30578718		0.21656578		7.39879775		-0.00075383		-0.00018180		-0.00022722	
O		1.60854398		5.09143385		0.71970158		-0.00071680		 0.00019373		-0.00021599	
O		5.12994197		0.21656578		11.14344985		 0.00071680		-0.00019373		 0.00021599	
O		-0.49926455		3.65933507		5.59029150		-0.00010498		 0.00012511		 0.00017561	
O		7.23775050		1.64866456		6.27285992		 0.00010498		-0.00012511		-0.00017561	
O		8.54050825		3.65933507		-0.40623625		 0.00009372		 0.00011168		-0.00016459	
O		-1.80202135		1.64866456		12.26938673		-0.00009372		-0.00011168		 0.00016459	
O		4.17273522		1.00533478		4.84277199		-0.00009694		 0.00011505		 0.00016679	
O		2.56575072		4.30266485		7.02037943		 0.00009694		-0.00011505		-0.00016679	
O		3.86850752		1.00533478		0.34128421		 0.00010839		 0.00012821		-0.00017798	
O		2.86997842		4.30266485		11.52186722		-0.00010839		-0.00012821		 0.00017798	
O		0.91896170		3.11208064		3.11805832		 0.00005396		 0.00025383		 0.00007513	
O		5.81952519		2.19591994		8.74509311		-0.00005396		-0.00025383		-0.00007513	
O		7.12228105		3.11208064		2.06599694		-0.00005746		 0.00025771		-0.00006425	
O		-0.38379510		2.19591994		9.79715354		 0.00005746		-0.00025771		 0.00006425	
O		5.59096053		0.45808035		2.37053786		 0.00005610		 0.00025765		 0.00006386	
O		1.14752542		4.84992023		9.49261262		-0.00005610		-0.00025765		-0.00006386	
O		2.45028222		0.45808035		2.81351740		-0.00005252		 0.00025342		-0.00007485	
O		4.28820372		4.84992023		9.04963498		 0.00005252		-0.00025342		 0.00007485	
Ca		1.40137387		2.54784039		0.93299226		 0.00020743		-0.00000634		-0.00005819	
Ca		5.33711208		2.76016019		10.93015917		-0.00020743		 0.00000634		 0.00005819	
Ca		6.63986888		2.54784039		4.25106394		-0.00020935		-0.00000646		 0.00005673	
Ca		0.09861706		2.76016019		7.61208749		 0.00020935		 0.00000646		-0.00005673	
Ca		6.07337364		5.20183973		0.18547181		 0.00021121		-0.00000660		-0.00005626	
Ca		0.66511230		0.10615990		11.67767867		-0.00021121		 0.00000660		 0.00005626	
Ca		1.96786911		5.20183973		4.99858345		-0.00020930		-0.00000656		 0.00005757	
Ca		4.77061684		0.10615990		6.86456798		 0.00020930		 0.00000656		-0.00005757	
Ca		-0.65137793		4.93166314		3.33954761		-0.00000008		 0.00006042		-0.00000169	
Ca		-1.95413473		0.37633743		10.01864378		 0.00000008		-0.00006042		 0.00000169	
Ca		4.02062090		2.27766285		2.59202810		 0.00000001		 0.00006114		 0.00000163	
Ca		2.71786504		3.03033678		9.27112427		-0.00000001		-0.00006114		-0.00000163	
