# total energy = -34526.7779185 eV	

CRYSTAL	
PRIMVEC	
		9.34400121		0.00000000		1.12127789	
		0.00000000		5.30800313		0.00000000	
		1.11325027		0.00000000		13.22365376	
PRIMCOORD
   56 1	
Si		1.83573363		2.54147004		4.97342009		 0.00017916		-0.00017152		-0.00017735	
Si		8.62151880		2.76653026		9.37150967		-0.00017916		 0.00017152		 0.00017735	
Si		8.06489178		2.54147004		2.75968467		-0.00018011		-0.00015894		 0.00022207	
Si		2.39236065		2.76653026		11.58524509		 0.00018011		 0.00015894		-0.00022207	
Si		6.50773423		5.19546972		5.53405998		 0.00017926		-0.00017147		-0.00017734	
Si		3.94951914		0.11252964		8.81086979		-0.00017926		 0.00017147		 0.00017734	
Si		3.39289212		5.19546972		2.19904479		-0.00018016		-0.00015892		 0.00022201	
Si		7.06436031		0.11252964		12.14588497		 0.00018016		 0.00015892		-0.00022201	
Mg		5.22862668		2.65399968		7.17246488		0.00000000		0.00000000		0.00000000	
Mg		4.67199967		2.65399968		0.56063988		0.00000000		0.00000000		0.00000000	
Mg		0.55662702		0.00000000		6.61182500		0.00000000		0.00000000		0.00000000	
Mg		0.00000000		0.00000000		0.00000000		0.00000000		0.00000000		0.00000000	
O		1.05862297		1.13431970		5.02664421		 0.00011634		 0.00010462		 0.00007753	
O		9.39862851		4.17367966		9.31828556		-0.00011634		-0.00010462		-0.00007753	
O		8.84200244		1.13431970		2.70646056		-0.00011332		 0.00009864		-0.00008148	
O		1.61524999		4.17367966		11.63846826		 0.00011332		-0.00009864		 0.00008148	
O		5.73062358		3.78832032		5.58728409		 0.00011616		 0.00010475		 0.00007755	
O		4.72662885		1.51967998		8.75764567		-0.00011616		-0.00010475		-0.00007755	
O		4.17000277		3.78832032		2.14582068		-0.00011332		 0.00009867		-0.00008137	
O		6.28724966		1.51967998		12.19910815		 0.00011332		-0.00009867		 0.00008137	
O		3.33931509		2.43743386		5.95744743		 0.00020430		 0.00066226		-0.00004710	
O		7.11793734		2.87056550		8.38748139		-0.00020430		-0.00066226		 0.00004710	
O		6.56131032		2.43743386		1.77565734		-0.00021151		 0.00066038		 0.00004091	
O		3.89594211		2.87056550		12.56927243		 0.00021151		-0.00066038		-0.00004091	
O		8.01131475		5.09143354		6.51808826		 0.00020427		 0.00066225		-0.00004707	
O		2.44593767		0.21656582		7.82684151		-0.00020427		-0.00066225		 0.00004707	
O		1.88931065		5.09143354		1.21501651		-0.00021149		 0.00066033		 0.00004083	
O		8.56794177		0.21656582		13.12991231		 0.00021149		-0.00066033		-0.00004083	
O		1.08418617		3.65933455		5.70385012		 0.00090118		-0.00010887		 0.00089038	
O		9.37306626		1.64866482		8.64108058		-0.00090118		 0.00010887		-0.00089038	
O		8.81644018		3.65933455		2.02925464		-0.00089773		-0.00010281		-0.00089621	
O		1.64081319		1.64866482		12.31567418		 0.00089773		 0.00010281		 0.00089621	
O		5.75618584		1.00533486		6.26449001		 0.00090111		-0.00010891		 0.00089048	
O		4.70106659		4.30266450		8.08044070		-0.00090111		 0.00010891		-0.00089048	
O		4.14443957		1.00533486		1.46861476		-0.00089772		-0.00010276		-0.00089626	
O		6.31281286		4.30266450		12.87631312		 0.00089772		 0.00010276		 0.00089626	
O		1.85720585		3.11208092		3.52548703		 0.00022717		-0.00025070		-0.00040065	
O		8.60004658		2.19592033		10.81944274		-0.00022717		 0.00025070		 0.00040065	
O		8.04341956		3.11208092		4.20761774		-0.00022573		-0.00026094		 0.00036113	
O		2.41383287		2.19592033		10.13731202		 0.00022573		 0.00026094		-0.00036113	
O		6.52920551		0.45808030		4.08612691		 0.00022717		-0.00025071		-0.00040059	
O		3.92804692		4.84992001		10.25880285		-0.00022717		 0.00025071		 0.00040059	
O		3.37141990		0.45808030		3.64697786		-0.00022574		-0.00026097		 0.00036114	
O		7.08583253		4.84992001		10.69795191		 0.00022574		 0.00026097		-0.00036114	
Ca		1.73390622		2.54784037		1.37858220		 0.00040999		-0.00006207		 0.00011930	
Ca		8.72334715		2.76015993		12.96634756		-0.00040999		 0.00006207		-0.00011930	
Ca		8.16672013		2.54784037		6.35452257		-0.00040991		-0.00006265		-0.00011266	
Ca		2.29053324		2.76015993		7.99040720		 0.00040991		 0.00006265		 0.00011266	
Ca		6.40590588		5.20184005		1.93922208		 0.00041000		-0.00006205		 0.00011907	
Ca		4.05134655		0.10616025		12.40570768		-0.00041000		 0.00006205		-0.00011907	
Ca		3.49471953		5.20184005		5.79388268		-0.00040977		-0.00006268		-0.00011257	
Ca		6.96253290		0.10616025		8.55104708		 0.00040977		 0.00006268		 0.00011257	
Ca		0.27831257		4.93166238		3.30591250		-0.00000095		-0.00036434		 0.00000491	
Ca		0.83493959		0.37633698		9.91773750		 0.00000095		 0.00036434		-0.00000491	
Ca		4.95031318		2.27766270		3.86655332		-0.00000095		-0.00036432		 0.00000492	
Ca		5.50694019		3.03033666		10.47837738		 0.00000095		 0.00036432		-0.00000492	
