# total energy = -13384.4946891 eV	

CRYSTAL	
PRIMVEC	
		3.05299981		0.00000000		-0.12211987	
		-1.52649838		2.64397707		0.06105994	
		-0.80499874		0.00000000		20.12499895	
PRIMCOORD
   18 1	
O		-0.25059689		0.00000000		6.26491250		 0.00024058		-0.00047342		-0.00027977	
O		-0.55440307		0.00000000		13.86008553		-0.00024058		 0.00047342		 0.00027977	
O		1.18179879		0.88132488		8.55646400		 0.00002886		-0.00025338		-0.00020967	
O		-0.46029884		1.76264975		11.50747379		-0.00002886		 0.00025338		 0.00020967	
O		1.46870074		0.88132488		1.38391500		 0.00044280		-0.00042356		 0.00015378	
O		-0.74720079		1.76264975		18.68002310		-0.00044280		 0.00042356		-0.00015378	
O		-0.15190400		1.76264975		3.79758759		 0.00007145		 0.00014303		 0.00011937	
O		0.87340303		0.88132488		16.26635020		-0.00007145		-0.00014303		-0.00011937	
H		1.14219294		0.88132488		9.54661391		 0.00057650		-0.00005631		-0.00017347	
H		-0.42069299		1.76264975		10.51732388		-0.00057650		 0.00005631		 0.00017347	
H		1.50830689		0.88132488		0.39376508		-0.00022028		-0.00004128		 0.00001174	
H		-0.78680694		1.76264975		19.67017301		 0.00022028		 0.00004128		-0.00001174	
Mg		-0.30018487		1.76264975		7.50461220		-0.00029618		-0.00019044		-0.00048687	
Mg		1.02168390		0.88132488		12.55932559		 0.00029618		 0.00019044		 0.00048687	
Mg		-0.10231603		0.00000000		2.55788788		 0.00069203		-0.00035064		 0.00025032	
Mg		-0.70268485		0.00000000		17.56711106		-0.00069203		 0.00035064		-0.00025032	
Mg		1.32516986		0.88132488		4.97220150		 0.00010999		-0.00014947		-0.00007926	
Mg		-0.60366900		1.76264975		15.09173537		-0.00010999		 0.00014947		 0.00007926	
