# total energy = -24715.0230049 eV

CRYSTAL
PRIMVEC
		9.53870002		0.00000000		0.00000000
		0.00000000		8.66009990		0.34640743
		-1.68714803		0.19936837		4.98419015
PRIMECORD
   40 1
Mg		-0.42178796		7.88030354		1.55926554		-0.00032109		 0.00003584		 0.00007566
Mg		-1.26536388		0.97916282		3.77132918		 0.00032109		-0.00003584		-0.00007566
Mg		4.34756205		3.55025359		1.38606373		-0.00032078		 0.00003594		 0.00007574
Mg		3.50398613		5.30921277		3.94453099		 0.00032078		-0.00003594		-0.00007574
Mg		-0.42178796		2.52316739		1.34498055		-0.00041092		 0.00027288		-0.00016290
Mg		-1.26536388		6.33630088		3.98561417		 0.00041092		-0.00027288		 0.00016290
Mg		4.34756205		6.85321734		1.51818331		-0.00041021		 0.00028002		-0.00016328
Mg		3.50398613		2.00625093		3.81241236		 0.00041021		-0.00028002		 0.00016328
Si		2.37296148		0.84554089		1.25647763		 0.00019861		-0.00005083		-0.00036785
Si		5.47858670		8.01392738		4.07411709		-0.00019861		 0.00005083		 0.00036785
Si		6.32216262		0.84725500		1.29934169		-0.00023591		-0.00004618		 0.00020273
Si		1.52938461		8.01221327		4.03125303		 0.00023591		 0.00004618		-0.00020273
Si		7.14231149		5.17558989		1.42968039		 0.00018446		-0.00005488		-0.00037500
Si		0.70923669		3.68387743		3.90091528		-0.00018446		 0.00005488		 0.00037500
Si		1.55281261		5.17730495		1.47254445		-0.00021737		-0.00005184		 0.00020945
Si		6.29873462		3.68216237		3.85805123		 0.00021737		 0.00005184		-0.00020945
O		0.84504584		0.74456898		0.71650136		 0.00068833		 0.00014945		-0.00067986
O		7.00650234		8.11489833		4.61409527		-0.00068833		-0.00014945		 0.00067986
O		7.85007827		0.78922727		1.83295946		-0.00018495		-0.00002340		-0.00032305
O		0.00146991		8.07024005		3.49763622		 0.00018495		 0.00002340		 0.00032305
O		5.61439585		5.07461894		0.88970317		 0.00070780		 0.00014977		-0.00067218
O		2.23715233		3.78484934		4.44089346		-0.00070780		-0.00014977		 0.00067218
O		3.08072825		5.11927818		2.00616127		-0.00020569		-0.00002232		-0.00033039
O		4.77081993		3.74019010		3.32443441		 0.00020569		 0.00002232		 0.00033039
O		2.93192644		2.29508658		1.67374329		 0.00021716		-0.00033853		 0.00023070
O		4.91962174		6.56438074		3.65685334		-0.00021716		 0.00033853		-0.00023070
O		5.76319766		2.26801289		0.99688954		 0.00029007		 0.00020642		-0.00053532
O		2.08834861		6.59145538		4.33370614		-0.00029007		-0.00020642		 0.00053532
O		7.70127645		6.62513558		1.84694510		 0.00022549		-0.00032712		 0.00023520
O		0.15027173		2.23433079		3.48365057		-0.00022549		 0.00032712		-0.00023520
O		0.99384765		6.59806189		1.17009230		 0.00028132		 0.00021920		-0.00054105
O		6.85769958		2.26140543		4.16050433		-0.00028132		-0.00021920		 0.00054105
O		3.33603347		0.06143400		0.13084426		-0.00038513		-0.00030447		-0.00046876
O		4.51551471		8.79803332		5.19975237		 0.00038513		 0.00030447		 0.00046876
O		5.35909063		0.15083069		2.36575499		 0.00018441		 0.00049841		 0.00018569
O		2.49245659		8.70863662		2.96483973		-0.00018441		-0.00049841		-0.00018569
O		8.10538348		4.39148395		0.30404606		-0.00037626		-0.00030440		-0.00046570
O		-0.25383530		4.46798337		5.02654961		 0.00037626		 0.00030440		 0.00046570
O		0.58974062		4.48088065		2.53895680		 0.00017312		 0.00050056		 0.00018362
O		7.26180660		4.37858667		2.79163792		-0.00017312		-0.00050056		-0.00018362
