# total energy = -24705.6773388 eV

CRYSTAL
PRIMVEC
		9.53870002		0.00000000		0.00000000
		0.00000000		8.66009990		-1.38562018
		-1.68714803		-0.79747348		4.98419015
PRIMECORD
   40 1
Mg		-0.42178796		7.63109547		-0.00682589		-0.00029935		 0.00024786		-0.00014985
Mg		-1.26536388		0.23153382		3.60540063		 0.00029935		-0.00024786		 0.00014985
Mg		4.34756205		3.30104456		0.68598229		-0.00029969		 0.00024746		-0.00014926
Mg		3.50398613		4.56158377		2.91259340		 0.00029969		-0.00024746		 0.00014926
Mg		-0.42178796		2.27395741		0.85031597		 0.00007562		-0.00051899		 0.00038131
Mg		-1.26536388		5.58867188		2.74825877		-0.00007562		 0.00051899		-0.00038131
Mg		4.34756205		6.60400736		0.15750778		 0.00007590		-0.00051869		 0.00038142
Mg		3.50398613		1.25862193		3.44106696		-0.00007590		 0.00051869		-0.00038142
Si		2.37296148		0.60061665		1.09716703		-0.00022958		 0.00003997		-0.00000344
Si		5.47858670		7.26201169		2.50140771		 0.00022958		-0.00003997		 0.00000344
Si		6.32216262		0.59375928		1.14003109		-0.00005146		-0.00011735		-0.00006542
Si		1.52938461		7.26887001		2.45854365		 0.00005146		 0.00011735		 0.00006542
Si		7.14231149		4.93066660		0.40435885		-0.00023548		 0.00004172		-0.00000682
Si		0.70923669		2.93196174		3.19421589		 0.00023548		-0.00004172		 0.00000682
Si		1.55281261		4.92380923		0.44722290		-0.00004845		-0.00011359		-0.00006446
Si		6.29873462		2.93882006		3.15135184		 0.00004845		 0.00011359		 0.00006446
O		0.84504584		0.60700471		0.57308891		-0.00024623		 0.00035752		 0.00026416
O		7.00650234		7.25562362		3.02548583		 0.00024623		-0.00035752		-0.00026416
O		7.85007827		0.42837157		1.68954796		-0.00029710		-0.00017400		 0.00026784
O		0.00146991		7.43425676		1.90902678		 0.00029710		 0.00017400		-0.00026784
O		5.61439585		4.93705562		-0.11971927		-0.00024187		 0.00035670		 0.00026921
O		2.23715233		2.92557367		3.71829401		 0.00024187		-0.00035670		-0.00026921
O		3.08072825		4.75842248		0.99673978		-0.00029972		-0.00017432		 0.00026701
O		4.77081993		3.10420681		2.60183496		 0.00029972		 0.00017432		-0.00026701
O		2.93192644		1.97819189		1.22740081		 0.00031633		 0.00005847		-0.00022132
O		4.91962174		5.88443835		2.37117393		-0.00031633		-0.00005847		 0.00022132
O		5.76319766		2.08648761		0.55054801		 0.00039820		 0.00014115		 0.00021734
O		2.08834861		5.77614072		3.04802673		-0.00039820		-0.00014115		-0.00021734
O		7.70127645		6.30824184		0.53459263		 0.00031693		 0.00005688		-0.00022212
O		0.15027173		1.55438840		3.06398211		-0.00031693		-0.00005688		 0.00022212
O		0.99384765		6.41653756		-0.14226017		 0.00039827		 0.00013881		 0.00021750
O		6.85769958		1.44609077		3.74083491		-0.00039827		-0.00013881		-0.00021750
O		3.33603347		0.03571575		0.11958573		-0.00015262		 0.00041296		-0.00001363
O		4.51551471		7.82691258		3.47898997		 0.00015262		-0.00041296		 0.00001363
O		5.35909063		-0.32187008		2.35449742		-0.00022178		 0.00030815		 0.00016343
O		2.49245659		8.18449937		1.24407827		 0.00022178		-0.00030815		-0.00016343
O		8.10538348		4.36576571		-0.57322245		-0.00015167		 0.00041358		-0.00001232
O		-0.25383530		3.49686263		4.17179815		 0.00015167		-0.00041358		 0.00001232
O		0.58974062		4.00817987		1.66168924		-0.00022320		 0.00030732		 0.00016391
O		7.26180660		3.85444941		1.93688646		 0.00022320		-0.00030732		-0.00016391
