# total energy = -24705.6773435 eV

CRYSTAL
PRIMVEC
		9.53870002		0.00000000		0.00000000
		0.00000000		8.66009990		1.38562018
		-1.68714803		0.79747348		4.98419015
PRIMECORD
   40 1
Mg		-0.42178796		8.02983030		2.49892192		 0.00028592		 0.00024001		 0.00013254
Mg		-1.26536388		1.42774022		3.87088459		-0.00028592		-0.00024001		-0.00013254
Mg		4.34756205		3.69978035		1.80611374		 0.00028551		 0.00023991		 0.00012759
Mg		3.50398613		5.75779017		4.56369278		-0.00028551		-0.00023991		-0.00012759
Mg		-0.42178796		2.67269224		1.64178006		-0.00006236		-0.00051182		-0.00037829
Mg		-1.26536388		6.78487828		4.72802741		 0.00006236		 0.00051182		 0.00037829
Mg		4.34756205		7.00274219		2.33458825		-0.00006463		-0.00051250		-0.00037960
Mg		3.50398613		2.45482833		4.03521923		 0.00006463		 0.00051250		 0.00037960
Si		2.37296148		0.99249506		1.35206494		 0.00005879		-0.00010682		 0.00006693
Si		5.47858670		8.46507641		5.01774158		-0.00005879		 0.00010682		-0.00006693
Si		6.32216262		0.99935339		1.39492900		 0.00020525		 0.00003788		-0.00001442
Si		1.52938461		8.45821809		4.97487847		-0.00020525		-0.00003788		 0.00001442
Si		7.14231149		5.32254406		2.04487313		 0.00003651		-0.00010743		 0.00005729
Si		0.70923669		4.13502646		4.32493435		-0.00003651		 0.00010743		-0.00005729
Si		1.55281261		5.32940334		2.08773718		 0.00024714		 0.00003160		 0.00000913
Si		6.29873462		4.12816813		4.28207029		-0.00024714		-0.00003160		-0.00000913
O		0.84504584		0.82710736		0.80254711		 0.00029547		-0.00019433		-0.00026599
O		7.00650234		8.63046316		5.56726036		-0.00029547		 0.00019433		 0.00026599
O		7.85007827		1.00574145		1.91900616		 0.00023617		 0.00035330		-0.00025708
O		0.00146991		8.45183002		4.45080131		-0.00023617		-0.00035330		 0.00025708
O		5.61439585		5.15715731		1.49535529		 0.00031195		-0.00019609		-0.00025933
O		2.23715233		4.30041321		4.87445218		-0.00031195		 0.00019609		 0.00025933
O		3.08072825		5.33579140		2.61181435		 0.00021050		 0.00035073		-0.00028494
O		4.77081993		4.12178007		3.75799313		-0.00021050		-0.00035073		 0.00028494
O		2.93192644		2.48522435		1.94154802		-0.00039258		 0.00015586		-0.00021027
O		4.91962174		6.97234712		4.42826041		 0.00039258		-0.00015586		 0.00021027
O		5.76319766		2.37692672		1.26469427		-0.00030592		 0.00005929		 0.00022018
O		2.08834861		7.08064380		5.10511321		 0.00030592		-0.00005929		-0.00022018
O		7.70127645		6.81527335		2.63435620		-0.00038569		 0.00016090		-0.00020698
O		0.15027173		2.64229717		3.73545222		 0.00038569		-0.00016090		 0.00020698
O		0.99384765		6.70697667		1.95750245		-0.00031940		 0.00006836		 0.00021958
O		6.85769958		2.75059289		4.41230502		 0.00031940		-0.00006836		-0.00021958
O		3.33603347		0.07686475		0.13759861		 0.00021145		 0.00029575		-0.00017380
O		4.51551471		9.38070481		6.23220886		-0.00021145		-0.00029575		 0.00017380
O		5.35909063		0.43445059		2.37251030		 0.00016723		 0.00041678		 0.00002042
O		2.49245659		9.02311898		3.99729717		-0.00016723		-0.00041678		-0.00002042
O		8.10538348		4.40691470		0.83040679		 0.00021817		 0.00029514		-0.00017226
O		-0.25383530		5.05065486		5.53940068		-0.00021817		-0.00029514		 0.00017226
O		0.58974062		4.76450054		3.06531753		 0.00016134		 0.00041820		 0.00001935
O		7.26180660		4.69306903		3.30448899		-0.00016134		-0.00041820		-0.00001935
