# total energy = -2068.43898951 eV

CRYSTAL
PRIMVEC
		2.93802190		0.47008184		0.00000000
		-1.06190473		2.30935774		0.00000000
		0.00000000		0.00000000		2.67968071
PRIMECORD
   2 1
Mg		0.00000000		0.00000000		0.00000000		-0.00020271		 0.00009146		0.00000000
O		0.27140286		1.69626706		1.33984006		 0.00020271		-0.00009146		0.00000000
