# total energy = -2068.97330769 eV

CRYSTAL
PRIMVEC
		2.93801997		-0.23504101		0.00000000
		-1.67256237		2.66192158		0.00000000
		0.00000000		0.00000000		2.67967971
PRIMECORD
   2 1
Mg		0.00000000		0.00000000		0.00000000		-0.00050415		-0.00043198		0.00000000
O		-0.13570100		1.69626689		1.33983985		 0.00050415		 0.00043198		0.00000000
