# total energy = -18275.267883 eV

CRYSTAL
PRIMVEC
		5.60280013		0.00000000		0.00000000
		-2.80140007		4.62111111		0.00000000
		0.00000000		0.00000000		14.61400210
PRIMECORD
   28 1
Mg		1.86013020		0.00000000		3.19754325		 0.01874332		-0.00000000		-0.01552626
Mg		-0.93006482		1.53420916		3.19754325		-0.02472558		-0.01374039		-0.01818723
Mg		1.87133524		3.08690195		3.19754325		-0.02472558		 0.01374039		-0.01818723
Mg		3.74266993		0.00000000		10.50454430		-0.01874332		0.00000000		-0.01552626
Mg		-1.87133524		3.08690195		10.50454430		 0.02472558		 0.01374039		-0.01818723
Mg		0.93006482		1.53420916		10.50454430		 0.02472558		-0.01374039		-0.01818723
Si		0.00000000		3.08074111		0.42672887		 0.00167030		-0.04545655		-0.04800515
Si		2.80140007		1.54037000		7.73372936		-0.00167030		 0.04545655		-0.04800515
Si		0.00000000		3.08074111		7.73372936		-0.00167030		-0.04545655		-0.04800515
Si		2.80140007		1.54037112		0.42672887		 0.00167030		 0.04545655		-0.04800515
O		0.00000000		3.08074111		2.05472778		-0.00161733		 0.00695619		 0.02593594
O		2.80140007		1.54037000		9.36172827		 0.00161733		-0.00695619		 0.02593594
O		0.00000000		3.08074111		9.36172827		 0.00161733		 0.00695619		 0.02593594
O		2.80140007		1.54037112		2.05472778		-0.00161733		-0.00695619		 0.02593594
O		2.76778327		0.00000000		14.48247412		 0.00193580		-0.00000000		 0.00523721
O		-1.38389219		2.28282898		14.48247412		-0.00115245		-0.00066183		 0.01112087
O		1.41750899		2.33828325		14.48247412		-0.00115245		 0.00066183		 0.01112087
O		2.83501687		0.00000000		7.17547419		-0.00193580		0.00000000		 0.00523721
O		-1.41750899		2.33828325		7.17547419		 0.00115245		 0.00066183		 0.01112087
O		1.38389219		2.28282898		7.17547419		 0.00115245		-0.00066183		 0.01112087
O		3.73520028		0.00000000		4.17814309		 0.02256332		-0.00000000		 0.03289295
O		-1.86759986		3.08074111		4.17814309		-0.01818592		 0.03685664		 0.00848843
O		0.93380021		1.54037000		4.17814309		-0.01818592		-0.03685664		 0.00848843
O		1.86759986		0.00000000		11.48514301		-0.02256332		0.00000000		 0.03289295
O		-0.93380021		1.54037000		11.48514301		 0.01818592		-0.03685664		 0.00848843
O		1.86759986		3.08074111		11.48514301		 0.01818592		 0.03685664		 0.00848843
O		0.00000000		0.00000000		2.10441621		 0.04457970		-0.00000000		 0.01869036
O		0.00000000		0.00000000		9.41141614		-0.04457970		0.00000000		 0.01869036
