# total energy = -18276.9613028 eV

CRYSTAL
PRIMVEC
		5.06920007		0.00000000		0.00000000
		-2.53460003		4.62111320		0.00000000
		0.00000000		0.00000000		14.61400195
PRIMECORD
   28 1
Mg		1.68297392		0.00000000		3.19754292		 0.00010153		0.00000000		-0.00044525
Mg		-0.84148721		1.53420912		3.19754292		 0.00000512		 0.00025645		-0.00023287
Mg		1.69311282		3.08690206		3.19754292		 0.00000512		-0.00025645		-0.00023287
Mg		3.38622514		0.00000000		10.50454390		-0.00010153		-0.00000000		-0.00044525
Mg		-1.69311282		3.08690206		10.50454390		-0.00000512		-0.00025645		-0.00023287
Mg		0.84148721		1.53420912		10.50454390		-0.00000512		 0.00025645		-0.00023287
Si		0.00000000		3.08074095		0.42672881		 0.00032269		 0.00027947		 0.00046234
Si		2.53460003		1.54037022		7.73372928		-0.00032269		-0.00027947		 0.00046234
Si		0.00000000		3.08074095		7.73372928		-0.00032269		 0.00027947		 0.00046234
Si		2.53460003		1.54037124		0.42672881		 0.00032269		-0.00027947		 0.00046234
O		0.00000000		3.08074095		2.05472827		 0.00052521		-0.00014114		 0.00075766
O		2.53460003		1.54037022		9.36172823		-0.00052521		 0.00014114		 0.00075766
O		0.00000000		3.08074095		9.36172823		-0.00052521		-0.00014114		 0.00075766
O		2.53460003		1.54037124		2.05472827		 0.00052521		 0.00014114		 0.00075766
O		2.50418483		0.00000000		14.48247395		 0.00012500		0.00000000		-0.00087717
O		-1.25209191		2.28282909		14.48247395		 0.00031100		-0.00002050		-0.00078786
O		1.28250812		2.33828310		14.48247395		 0.00031100		 0.00002050		-0.00078786
O		2.56501524		0.00000000		7.17547399		-0.00012500		0.00000000		-0.00087717
O		-1.28250812		2.33828310		7.17547399		-0.00031100		 0.00002050		-0.00078786
O		1.25209191		2.28282909		7.17547399		-0.00031100		-0.00002050		-0.00078786
O		3.37946688		0.00000000		4.17814318		-0.00019263		0.00000000		 0.00007515
O		-1.68973319		3.08074095		4.17814318		-0.00010866		-0.00034617		 0.00047338
O		0.84486685		1.54037022		4.17814318		-0.00010866		 0.00034617		 0.00047338
O		1.68973319		0.00000000		11.48514314		 0.00019263		-0.00000000		 0.00007515
O		-0.84486685		1.54037022		11.48514314		 0.00010866		 0.00034617		 0.00047338
O		1.68973319		3.08074095		11.48514314		 0.00010866		-0.00034617		 0.00047338
O		0.00000000		0.00000000		2.10441606		-0.00040082		0.00000000		-0.00009803
O		0.00000000		0.00000000		9.41141602		 0.00040082		0.00000000		-0.00009803
