# total energy = -18276.2504694 eV

CRYSTAL
PRIMVEC
		4.93579979		0.00000000		0.00000000
		-2.46789989		4.62111294		0.00000000
		0.00000000		0.00000000		14.61399992
PRIMECORD
   28 1
Mg		1.63868602		0.00000000		3.19754289		-0.00021153		0.00000000		-0.00028227
Mg		-0.81934277		1.53420896		3.19754289		-0.00019916		 0.00065461		-0.00047010
Mg		1.64855713		3.08690200		3.19754289		-0.00019916		-0.00065461		-0.00047010
Mg		3.29711377		0.00000000		10.50454335		 0.00021153		-0.00000000		-0.00028227
Mg		-1.64855713		3.08690200		10.50454335		 0.00019916		-0.00065461		-0.00047010
Mg		0.81934277		1.53420896		10.50454335		 0.00019916		 0.00065461		-0.00047010
Si		0.00000000		3.08074064		0.42672901		 0.00088116		-0.00022724		 0.00031859
Si		2.46789989		1.54036983		7.73372848		-0.00088116		 0.00022724		 0.00031859
Si		0.00000000		3.08074064		7.73372848		-0.00088116		-0.00022724		 0.00031859
Si		2.46789989		1.54037081		0.42672901		 0.00088116		 0.00022724		 0.00031859
O		0.00000000		3.08074064		2.05472804		-0.00032270		-0.00033717		 0.00040025
O		2.46789989		1.54036983		9.36172751		 0.00032270		 0.00033717		 0.00040025
O		0.00000000		3.08074064		9.36172751		 0.00032270		-0.00033717		 0.00040025
O		2.46789989		1.54037081		2.05472804		-0.00032270		 0.00033717		 0.00040025
O		2.43828510		0.00000000		14.48247320		-0.00003922		0.00000000		-0.00008350
O		-1.21914304		2.28282912		14.48247320		 0.00054141		 0.00026772		 0.00009790
O		1.24875685		2.33828283		14.48247320		 0.00054141		-0.00026772		 0.00009790
O		2.49751469		0.00000000		7.17547373		 0.00003922		-0.00000000		-0.00008350
O		-1.24875685		2.33828283		7.17547373		-0.00054141		-0.00026772		 0.00009790
O		1.21914304		2.28282912		7.17547373		-0.00054141		 0.00026772		 0.00009790
O		3.29053286		0.00000000		4.17814268		 0.00077042		0.00000000		 0.00028712
O		-1.64526693		3.08074064		4.17814268		 0.00003634		-0.00035139		-0.00031993
O		0.82263297		1.54036983		4.17814268		 0.00003634		 0.00035139		-0.00031993
O		1.64526693		0.00000000		11.48514264		-0.00077042		0.00000000		 0.00028712
O		-0.82263297		1.54036983		11.48514264		-0.00003634		 0.00035139		-0.00031993
O		1.64526693		3.08074064		11.48514264		-0.00003634		-0.00035139		-0.00031993
O		0.00000000		0.00000000		2.10441575		 0.00045191		-0.00000000		 0.00002523
O		0.00000000		0.00000000		9.41141571		-0.00045191		0.00000000		 0.00002523
