# total energy = -18277.5182051 eV

CRYSTAL
PRIMVEC
		5.20259982		0.00000000		0.00000000
		-2.60129991		4.62111044		0.00000000
		0.00000000		0.00000000		14.61399884
PRIMECORD
   28 1
Mg		1.72726314		0.00000000		3.19754282		 0.00072122		-0.00000000		-0.00028764
Mg		-0.86363209		1.53420871		3.19754282		 0.00091422		-0.00008518		-0.00043577
Mg		1.73766782		3.08690173		3.19754282		 0.00091422		 0.00008518		-0.00043577
Mg		3.47533668		0.00000000		10.50454381		-0.00072122		0.00000000		-0.00028764
Mg		-1.73766782		3.08690173		10.50454381		-0.00091422		 0.00008518		-0.00043577
Mg		0.86363209		1.53420871		10.50454381		-0.00091422		-0.00008518		-0.00043577
Si		0.00000000		3.08074081		0.42672920		-0.00015855		 0.00037666		 0.00034953
Si		2.60129991		1.54037015		7.73372863		 0.00015855		-0.00037666		 0.00034953
Si		0.00000000		3.08074081		7.73372863		 0.00015855		 0.00037666		 0.00034953
Si		2.60129991		1.54037119		0.42672920		-0.00015855		-0.00037666		 0.00034953
O		0.00000000		3.08074081		2.05472778		-0.00089567		 0.00008859		 0.00072160
O		2.60129991		1.54037015		9.36172772		 0.00089567		-0.00008859		 0.00072160
O		0.00000000		3.08074081		9.36172772		 0.00089567		 0.00008859		 0.00072160
O		2.60129991		1.54037119		2.05472778		-0.00089567		-0.00008859		 0.00072160
O		2.57008379		0.00000000		14.48247348		-0.00030364		-0.00000000		-0.00021766
O		-1.28504216		2.28282901		14.48247348		 0.00013087		-0.00023676		-0.00011216
O		1.31625775		2.33828300		14.48247348		 0.00013087		 0.00023676		-0.00011216
O		2.63251603		0.00000000		7.17547354		 0.00030364		0.00000000		-0.00021766
O		-1.31625775		2.33828300		7.17547354		-0.00013087		 0.00023676		-0.00011216
O		1.28504216		2.28282901		7.17547354		-0.00013087		-0.00023676		-0.00011216
O		3.46840005		0.00000000		4.17814288		 0.00071236		0.00000000		 0.00015318
O		-1.73419977		3.08074081		4.17814288		-0.00017945		-0.00055671		-0.00062536
O		0.86710014		1.54037015		4.17814288		-0.00017945		 0.00055671		-0.00062536
O		1.73419977		0.00000000		11.48514283		-0.00071236		0.00000000		 0.00015318
O		-0.86710014		1.54037015		11.48514283		 0.00017945		 0.00055671		-0.00062536
O		1.73419977		3.08074081		11.48514283		 0.00017945		-0.00055671		-0.00062536
O		0.00000000		0.00000000		2.10441573		 0.00048689		0.00000000		 0.00055642
O		0.00000000		0.00000000		9.41141567		-0.00048689		0.00000000		 0.00055642
