# total energy = -38097.9515503 eV	

CRYSTAL	
PRIMVEC	
		5.69209984		0.00000000		0.00000000	
		0.00000000		11.46000138		0.00000000	
		0.00000000		0.00000000		8.04667679	
PRIMCOORD
   58 1	
O		1.53572911		1.40843383		7.98954404		-0.00075527		-0.00040946		-0.00026834	
O		4.15637074		10.05156584		0.05713104		 0.00075527		 0.00040946		 0.00026834	
O		4.15637074		4.32156572		7.98954404		 0.00075527		 0.00040946		-0.00026834	
O		1.53572911		7.13843395		0.05713104		-0.00075527		-0.00040946		 0.00026834	
O		1.53572911		10.05156584		0.05713104		-0.00075527		 0.00040946		 0.00026834	
O		4.15637074		1.40843383		7.98954404		 0.00075527		-0.00040946		-0.00026834	
O		4.15637074		7.13843395		0.05713104		 0.00075527		-0.00040946		 0.00026834	
O		1.53572911		4.32156572		7.98954404		-0.00075527		 0.00040946		-0.00026834	
O		2.84604992		5.60966970		6.08006768		0.00000000		-0.00017393		 0.00052730	
O		2.84604992		5.85032997		1.96660797		0.00000000		 0.00017393		-0.00052730	
O		2.84604992		0.12032985		6.08006768		0.00000000		 0.00017393		 0.00052730	
O		2.84604992		11.33966982		1.96660797		0.00000000		-0.00017393		-0.00052730	
O		0.00000000		2.86500006		5.76785657		0.00000000		0.00000000		-0.00025971	
O		0.00000000		8.59499961		2.27881908		0.00000000		0.00000000		 0.00025971	
O		0.00000000		2.86500006		1.75980772		0.00000000		0.00000000		 0.00054273	
O		0.00000000		8.59499961		6.28686679		0.00000000		0.00000000		-0.00054273	
O		2.84604992		8.59499961		5.78314498		0.00000000		0.00000000		 0.00024908	
O		2.84604992		2.86500006		2.26353010		0.00000000		0.00000000		-0.00024908	
O		2.84604992		8.59499961		1.74451874		0.00000000		0.00000000		-0.00031599	
O		2.84604992		2.86500006		6.30215577		0.00000000		0.00000000		 0.00031599	
O		0.00000000		11.33966982		2.05672985		-0.00000000		 0.00037430		 0.00063341	
O		0.00000000		0.12032985		5.98994466		0.00000000		-0.00037430		-0.00063341	
O		0.00000000		5.85032997		2.05672985		0.00000000		-0.00037430		 0.00063341	
O		0.00000000		5.60966970		5.98994466		0.00000000		 0.00037430		-0.00063341	
O		4.38177903		7.13843395		3.96620565		-0.00050325		-0.00001367		-0.00055153	
O		1.31032081		4.32156572		4.08046886		 0.00050325		 0.00001367		 0.00055153	
O		1.31032081		10.05156584		3.96620565		 0.00050325		 0.00001367		-0.00055153	
O		4.38177903		1.40843383		4.08046886		-0.00050325		-0.00001367		 0.00055153	
O		4.38177903		4.32156572		4.08046886		-0.00050325		 0.00001367		 0.00055153	
O		1.31032081		7.13843395		3.96620565		 0.00050325		-0.00001367		-0.00055153	
O		1.31032081		1.40843383		4.08046886		 0.00050325		-0.00001367		 0.00055153	
O		4.38177903		10.05156584		3.96620565		-0.00050325		 0.00001367		-0.00055153	
H		2.84604992		8.59499961		4.75960809		0.00000000		0.00000000		 0.00009823	
H		2.84604992		2.86500006		3.28706699		0.00000000		0.00000000		-0.00009823	
H		0.00000000		2.86500006		2.78334518		0.00000000		0.00000000		 0.00072665	
H		0.00000000		8.59499961		5.26332990		0.00000000		0.00000000		-0.00072665	
Mg		2.84604992		5.73000012		4.02333783		0.00000000		0.00000000		0.00000000	
Mg		2.84604992		0.00000000		4.02333783		0.00000000		0.00000000		0.00000000	
Mg		0.00000000		0.00000000		0.00000000		0.00000000		0.00000000		0.00000000	
Mg		0.00000000		5.73000012		0.00000000		0.00000000		0.00000000		0.00000000	
Mg		1.42302496		1.44854378		2.01166891		-0.00040391		-0.00005404		 0.00000221	
Mg		4.26907488		10.01145589		6.03500560		 0.00040391		 0.00005404		-0.00000221	
Mg		4.26907488		4.28145577		2.01166891		 0.00040391		 0.00005404		 0.00000221	
Mg		1.42302496		7.17854390		6.03500560		-0.00040391		-0.00005404		-0.00000221	
Mg		1.42302496		10.01145589		6.03500560		-0.00040391		 0.00005404		-0.00000221	
Mg		4.26907488		1.44854378		2.01166891		 0.00040391		-0.00005404		 0.00000221	
Mg		4.26907488		7.17854390		6.03500560		 0.00040391		-0.00005404		-0.00000221	
Mg		1.42302496		4.28145577		2.01166891		-0.00040391		 0.00005404		 0.00000221	
Mg		0.00000000		2.86500006		7.80607970		0.00000000		0.00000000		-0.00005488	
Mg		0.00000000		8.59499961		0.24059595		0.00000000		0.00000000		 0.00005488	
Si		2.84604992		7.10634588		0.93824191		0.00000000		 0.00032332		-0.00002227	
Si		2.84604992		4.35365379		7.10843260		0.00000000		-0.00032332		 0.00002227	
Si		2.84604992		10.08365392		0.93824191		0.00000000		-0.00032332		-0.00002227	
Si		2.84604992		1.37634576		7.10843260		0.00000000		 0.00032332		 0.00002227	
Si		0.00000000		1.37634576		4.96157973		0.00000000		 0.00032126		 0.00025594	
Si		0.00000000		10.08365392		3.08509478		0.00000000		-0.00032126		-0.00025594	
Si		0.00000000		4.35365379		4.96157973		0.00000000		-0.00032126		 0.00025594	
Si		0.00000000		7.10634588		3.08509478		0.00000000		 0.00032126		-0.00025594	
