# total energy = -38097.9523452 eV	

CRYSTAL	
PRIMVEC	
		5.69209984		0.00000000		0.00000000	
		0.00000000		11.46000138		0.00000000	
		0.00000000		0.00000000		8.66564711	
PRIMCOORD
   58 1	
O		1.53572911		1.40843383		8.60412348		 0.00016725		 0.00048276		-0.00012915	
O		4.15637074		10.05156584		0.06152591		-0.00016725		-0.00048276		 0.00012915	
O		4.15637074		4.32156572		8.60412348		-0.00016725		-0.00048276		-0.00012915	
O		1.53572911		7.13843395		0.06152591		 0.00016725		 0.00048276		 0.00012915	
O		1.53572911		10.05156584		0.06152591		 0.00016725		-0.00048276		 0.00012915	
O		4.15637074		1.40843383		8.60412348		-0.00016725		 0.00048276		-0.00012915	
O		4.15637074		7.13843395		0.06152591		-0.00016725		 0.00048276		 0.00012915	
O		1.53572911		4.32156572		8.60412348		 0.00016725		-0.00048276		-0.00012915	
O		2.84604992		5.60966970		6.54776475		0.00000000		 0.00078012		-0.00014183	
O		2.84604992		5.85032997		2.11788520		0.00000000		-0.00078012		 0.00014183	
O		2.84604992		0.12032985		6.54776475		0.00000000		-0.00078012		-0.00014183	
O		2.84604992		11.33966982		2.11788520		0.00000000		 0.00078012		 0.00014183	
O		0.00000000		2.86500006		6.21153811		0.00000000		0.00000000		-0.00040696	
O		0.00000000		8.59499961		2.45411185		0.00000000		0.00000000		 0.00040696	
O		0.00000000		2.86500006		1.89517781		0.00000000		0.00000000		 0.00008001	
O		0.00000000		8.59499961		6.77047271		0.00000000		0.00000000		-0.00008001	
O		2.84604992		8.59499961		6.22800307		0.00000000		0.00000000		 0.00063822	
O		2.84604992		2.86500006		2.43764688		0.00000000		0.00000000		-0.00063822	
O		2.84604992		8.59499961		1.87871284		0.00000000		0.00000000		 0.00018688	
O		2.84604992		2.86500006		6.78693768		0.00000000		0.00000000		-0.00018688	
O		0.00000000		11.33966982		2.21494006		-0.00000000		 0.00008596		-0.00026136	
O		0.00000000		0.12032985		6.45070990		0.00000000		-0.00008596		 0.00026136	
O		0.00000000		5.85032997		2.21494006		0.00000000		-0.00008596		-0.00026136	
O		0.00000000		5.60966970		6.45070990		0.00000000		 0.00008596		 0.00026136	
O		4.38177903		7.13843395		4.27129879		-0.00018981		 0.00008564		-0.00002615	
O		1.31032081		4.32156572		4.39435060		 0.00018981		-0.00008564		 0.00002615	
O		1.31032081		10.05156584		4.27129879		 0.00018981		-0.00008564		-0.00002615	
O		4.38177903		1.40843383		4.39435060		-0.00018981		 0.00008564		 0.00002615	
O		4.38177903		4.32156572		4.39435060		-0.00018981		-0.00008564		 0.00002615	
O		1.31032081		7.13843395		4.27129879		 0.00018981		 0.00008564		-0.00002615	
O		1.31032081		1.40843383		4.39435060		 0.00018981		 0.00008564		 0.00002615	
O		4.38177903		10.05156584		4.27129879		-0.00018981		-0.00008564		-0.00002615	
H		2.84604992		8.59499961		5.12573192		0.00000000		0.00000000		 0.00085284	
H		2.84604992		2.86500006		3.53991803		0.00000000		0.00000000		-0.00085284	
H		0.00000000		2.86500006		2.99744782		0.00000000		0.00000000		 0.00004301	
H		0.00000000		8.59499961		5.66820156		0.00000000		0.00000000		-0.00004301	
Mg		2.84604992		5.73000012		4.33282469		0.00000000		0.00000000		0.00000000	
Mg		2.84604992		0.00000000		4.33282469		0.00000000		-0.00000000		0.00000000	
Mg		0.00000000		0.00000000		0.00000000		0.00000000		0.00000000		0.00000000	
Mg		0.00000000		5.73000012		0.00000000		0.00000000		-0.00000000		0.00000000	
Mg		1.42302496		1.44854378		2.16641320		 0.00010830		-0.00008568		 0.00044347	
Mg		4.26907488		10.01145589		6.49923789		-0.00010830		 0.00008568		-0.00044347	
Mg		4.26907488		4.28145577		2.16641320		-0.00010830		 0.00008568		 0.00044347	
Mg		1.42302496		7.17854390		6.49923789		 0.00010830		-0.00008568		-0.00044347	
Mg		1.42302496		10.01145589		6.49923789		 0.00010830		 0.00008568		-0.00044347	
Mg		4.26907488		1.44854378		2.16641320		-0.00010830		-0.00008568		 0.00044347	
Mg		4.26907488		7.17854390		6.49923789		-0.00010830		-0.00008568		-0.00044347	
Mg		1.42302496		4.28145577		2.16641320		 0.00010830		 0.00008568		 0.00044347	
Mg		0.00000000		2.86500006		8.40654671		0.00000000		0.00000000		 0.00011702	
Mg		0.00000000		8.59499961		0.25910325		0.00000000		0.00000000		-0.00011702	
Si		2.84604992		7.10634588		1.01041489		0.00000000		-0.00022262		 0.00024780	
Si		2.84604992		4.35365379		7.65523564		0.00000000		 0.00022262		-0.00024780	
Si		2.84604992		10.08365392		1.01041489		0.00000000		 0.00022262		 0.00024780	
Si		2.84604992		1.37634576		7.65523564		0.00000000		-0.00022262		-0.00024780	
Si		0.00000000		1.37634576		5.34323958		0.00000000		-0.00019368		-0.00011579	
Si		0.00000000		10.08365392		3.32241094		0.00000000		 0.00019368		 0.00011579	
Si		0.00000000		4.35365379		5.34323958		0.00000000		 0.00019368		-0.00011579	
Si		0.00000000		7.10634588		3.32241094		0.00000000		-0.00019368		 0.00011579	
