# total energy = -38098.4044294 eV	

CRYSTAL	
PRIMVEC	
		5.69209984		0.00000000		0.00000000	
		0.00000000		11.46000138		0.00000000	
		0.00000000		0.00000000		8.45932557	
PRIMCOORD
   58 1	
O		1.53572911		1.40843383		8.39926367		-0.00067904		 0.00041257		-0.00016376	
O		4.15637074		10.05156584		0.06006076		 0.00067904		-0.00041257		 0.00016376	
O		4.15637074		4.32156572		8.39926367		 0.00067904		-0.00041257		-0.00016376	
O		1.53572911		7.13843395		0.06006076		-0.00067904		 0.00041257		 0.00016376	
O		1.53572911		10.05156584		0.06006076		-0.00067904		-0.00041257		 0.00016376	
O		4.15637074		1.40843383		8.39926367		 0.00067904		 0.00041257		-0.00016376	
O		4.15637074		7.13843395		0.06006076		 0.00067904		 0.00041257		 0.00016376	
O		1.53572911		4.32156572		8.39926367		-0.00067904		-0.00041257		-0.00016376	
O		2.84604992		5.60966970		6.39186611		0.00000000		 0.00048598		-0.00033996	
O		2.84604992		5.85032997		2.06745889		0.00000000		-0.00048598		 0.00033996	
O		2.84604992		0.12032985		6.39186611		-0.00000000		-0.00048598		-0.00033996	
O		2.84604992		11.33966982		2.06745889		0.00000000		 0.00048598		 0.00033996	
O		0.00000000		2.86500006		6.06364369		0.00000000		0.00000000		-0.00053152	
O		0.00000000		8.59499961		2.39568074		0.00000000		0.00000000		 0.00053152	
O		0.00000000		2.86500006		1.85005369		0.00000000		0.00000000		 0.00008760	
O		0.00000000		8.59499961		6.60927074		0.00000000		0.00000000		-0.00008760	
O		2.84604992		8.59499961		6.07971704		0.00000000		0.00000000		 0.00034081	
O		2.84604992		2.86500006		2.37960795		0.00000000		0.00000000		-0.00034081	
O		2.84604992		8.59499961		1.83398205		0.00000000		0.00000000		 0.00075157	
O		2.84604992		2.86500006		6.62534409		0.00000000		0.00000000		-0.00075157	
O		0.00000000		11.33966982		2.16220389		0.00000000		-0.00002482		-0.00017720	
O		0.00000000		0.12032985		6.29712167		0.00000000		 0.00002482		 0.00017720	
O		0.00000000		5.85032997		2.16220389		0.00000000		 0.00002482		-0.00017720	
O		0.00000000		5.60966970		6.29712167		0.00000000		-0.00002482		 0.00017720	
O		4.38177903		7.13843395		4.16960202		-0.00077844		-0.00006586		-0.00031249	
O		1.31032081		4.32156572		4.28972411		 0.00077844		 0.00006586		 0.00031249	
O		1.31032081		10.05156584		4.16960202		 0.00077844		 0.00006586		-0.00031249	
O		4.38177903		1.40843383		4.28972411		-0.00077844		-0.00006586		 0.00031249	
O		4.38177903		4.32156572		4.28972411		-0.00077844		 0.00006586		 0.00031249	
O		1.31032081		7.13843395		4.16960202		 0.00077844		-0.00006586		-0.00031249	
O		1.31032081		1.40843383		4.28972411		 0.00077844		-0.00006586		 0.00031249	
O		4.38177903		10.05156584		4.16960202		-0.00077844		 0.00006586		-0.00031249	
H		2.84604992		8.59499961		5.00369103		0.00000000		0.00000000		 0.00083814	
H		2.84604992		2.86500006		3.45563511		0.00000000		0.00000000		-0.00083814	
H		0.00000000		2.86500006		2.92608085		0.00000000		0.00000000		 0.00054394	
H		0.00000000		8.59499961		5.53324472		0.00000000		0.00000000		-0.00054394	
Mg		2.84604992		5.73000012		4.22966278		0.00000000		0.00000000		0.00000000	
Mg		2.84604992		0.00000000		4.22966278		0.00000000		-0.00000000		0.00000000	
Mg		0.00000000		0.00000000		0.00000000		0.00000000		-0.00000000		0.00000000	
Mg		0.00000000		5.73000012		0.00000000		0.00000000		0.00000000		0.00000000	
Mg		1.42302496		1.44854378		2.11483082		-0.00053425		 0.00020215		 0.00037419	
Mg		4.26907488		10.01145589		6.34449361		 0.00053425		-0.00020215		-0.00037419	
Mg		4.26907488		4.28145577		2.11483082		 0.00053425		-0.00020215		 0.00037419	
Mg		1.42302496		7.17854390		6.34449361		-0.00053425		 0.00020215		-0.00037419	
Mg		1.42302496		10.01145589		6.34449361		-0.00053425		-0.00020215		-0.00037419	
Mg		4.26907488		1.44854378		2.11483082		 0.00053425		 0.00020215		 0.00037419	
Mg		4.26907488		7.17854390		6.34449361		 0.00053425		 0.00020215		-0.00037419	
Mg		1.42302496		4.28145577		2.11483082		-0.00053425		-0.00020215		 0.00037419	
Mg		0.00000000		2.86500006		8.20639085		0.00000000		0.00000000		 0.00037609	
Mg		0.00000000		8.59499961		0.25293415		0.00000000		0.00000000		-0.00037609	
Si		2.84604992		7.10634588		0.98635723		0.00000000		-0.00019801		 0.00009358	
Si		2.84604992		4.35365379		7.47296777		0.00000000		 0.00019801		-0.00009358	
Si		2.84604992		10.08365392		0.98635723		0.00000000		 0.00019801		 0.00009358	
Si		2.84604992		1.37634576		7.47296777		0.00000000		-0.00019801		-0.00009358	
Si		0.00000000		1.37634576		5.21602001		0.00000000		-0.00023143		-0.00058221	
Si		0.00000000		10.08365392		3.24330612		0.00000000		 0.00023143		 0.00058221	
Si		0.00000000		4.35365379		5.21602001		0.00000000		 0.00023143		-0.00058221	
Si		0.00000000		7.10634588		3.24330612		0.00000000		-0.00023143		 0.00058221	
