# total energy = -12353.9802938 eV	

CRYSTAL	
PRIMVEC	
		2.71746461		0.00000000		0.00000000	
		0.00000000		9.22893785		0.00021173	
		0.00000000		0.00016495		6.75802285	
PRIMCOORD
   20 1	
O		0.00000000		0.67869243		1.69003972		0.00000000		-0.00030838		-0.00007489	
O		0.00000000		8.55043992		5.06819560		-0.00000001		 0.00023115		 0.00007493	
O		1.35873255		5.29312984		1.69014583		-0.00000001		-0.00023114		-0.00007492	
O		1.35873231		3.93594047		5.06808974		 0.00000001		 0.00030837		 0.00007488	
O		0.00000000		3.45678355		3.00374894		 0.00000006		-0.00003736		 0.00035439	
O		0.00000000		5.77228676		3.75448023		-0.00000008		 0.00010925		-0.00033877	
O		0.00000000		5.77212993		6.38310800		 0.00000006		 0.00008534		 0.00023710	
O		0.00000000		3.45694062		0.37513397		-0.00000001		-0.00001336		-0.00025285	
O		1.35873231		8.07128325		3.00386121		 0.00000002		-0.00010924		 0.00033876	
O		1.35873255		1.15784910		3.75438027		-0.00000001		 0.00003737		-0.00035438	
O		1.35873255		1.15769227		6.38299524		-0.00000000		 0.00001331		 0.00025287	
O		1.35873255		8.07144008		0.37523368		-0.00000002		-0.00008535		-0.00023712	
Si		0.00000000		-0.00004038		0.00000345		-0.00000002		 0.00010219		-0.00000897	
Si		0.00000000		0.00004185		3.37900823		0.00000000		 0.00010222		 0.00000888	
Si		1.35873231		4.61450930		0.00010267		 0.00000004		-0.00010219		 0.00000897	
Si		1.35873255		4.61459104		3.37912123		-0.00000002		-0.00010219		-0.00000887	
Mg		0.00000000		2.40530467		5.06706678		-0.00000000		 0.00014380		 0.00062782	
Mg		0.00000000		6.82380331		1.69116879		-0.00000002		-0.00016171		-0.00062803	
Mg		1.35873231		7.01976670		5.06717289		 0.00000001		 0.00016170		 0.00062801	
Mg		1.35873255		2.20932823		1.69106244		 0.00000001		-0.00014376		-0.00062780	
