# total energy = -12353.9124673 eV	

CRYSTAL	
PRIMVEC	
		2.67321755		0.00000000		0.00000000	
		0.00000000		9.01922469		0.00006894	
		0.00000000		0.00004924		6.63412024	
PRIMCOORD
   20 1	
O		0.00000000		0.66201582		1.65881787		-0.00000002		-0.00004601		-0.00004821	
O		0.00000000		8.35725195		4.97537057		 0.00000001		 0.00006776		 0.00004819	
O		1.33660902		5.17163481		1.65885184		-0.00000000		-0.00006779		-0.00004824	
O		1.33660877		3.84764674		4.97533684		 0.00000001		 0.00004604		 0.00004823	
O		0.00000000		3.35895450		2.94300894		 0.00000004		 0.00007707		 0.00012534	
O		0.00000000		5.66032805		3.69118171		-0.00000003		-0.00009881		-0.00013017	
O		0.00000000		5.66027757		6.26034529		 0.00000001		-0.00011177		 0.00001844	
O		0.00000000		3.35900472		0.37384142		0.00000000		 0.00009005		-0.00001363	
O		1.33660877		7.86855871		2.94304070		0.00000000		 0.00009884		 0.00013015	
O		1.33660927		1.15070832		3.69114577		-0.00000002		-0.00007710		-0.00012535	
O		1.33660927		1.15065809		6.26031328		-0.00000001		-0.00009003		 0.00001362	
O		1.33660877		7.86860894		0.37387687		 0.00000002		 0.00011173		-0.00001841	
Si		0.00000000		0.00001280		0.00000000		-0.00000000		-0.00003087		 0.00000193	
Si		0.00000000		0.00003791		3.31706086		-0.00000001		-0.00003088		-0.00000193	
Si		1.33660877		4.50959954		0.00003447		 0.00000002		 0.00003088		-0.00000195	
Si		1.33660877		4.50962490		3.31709385		0.00000000		 0.00003088		 0.00000195	
Mg		0.00000000		2.32970600		4.97476122		 0.00000001		-0.00025081		 0.00031891	
Mg		0.00000000		6.68956620		1.65942721		-0.00000001		 0.00025567		-0.00031892	
Mg		1.33660877		6.83932056		4.97479495		 0.00000001		-0.00025566		 0.00031895	
Mg		1.33660927		2.17995657		1.65939324		-0.00000003		 0.00025080		-0.00031891	
