# total energy = -12353.7662565 eV	

CRYSTAL	
PRIMVEC	
		2.73861812		0.00000000		0.00000000	
		0.00000000		9.33165250		0.00024374	
		0.00000000		0.00018711		6.82107221	
PRIMCOORD
   20 1	
O		0.00000000		0.68750319		1.70591297		 0.00000001		-0.00056005		-0.00008272	
O		0.00000000		8.64433987		5.11540273		-0.00000002		 0.00055837		 0.00008271	
O		1.36930931		5.35332870		1.70603435		0.00000000		-0.00055830		-0.00008276	
O		1.36930931		3.97851190		5.11528111		0.00000000		 0.00056009		 0.00008275	
O		0.00000000		3.50574461		3.03482824		-0.00000001		-0.00020338		 0.00053364	
O		0.00000000		5.82609599		3.78648697		-0.00000000		 0.00020525		-0.00053316	
O		0.00000000		5.82585841		6.44571248		 0.00000002		 0.00019540		 0.00045857	
O		0.00000000		3.50598243		0.37560323		 0.00000002		-0.00019357		-0.00045909	
O		1.36930931		8.17157258		3.03495011		-0.00000006		-0.00020527		 0.00053309	
O		1.36930931		1.16027048		3.78636584		 0.00000004		 0.00020343		-0.00053361	
O		1.36930931		1.16003290		6.44559086		-0.00000005		 0.00019345		 0.00045912	
O		1.36930931		8.17181016		0.37572460		 0.00000002		-0.00019544		-0.00045852	
Si		0.00000000		0.00000000		0.00000000		-0.00000001		 0.00000234		-0.00000033	
Si		0.00000000		0.00009331		3.41053635		 0.00000001		 0.00000239		 0.00000033	
Si		1.36930906		4.66582797		0.00012113		 0.00000001		-0.00000242		 0.00000031	
Si		1.36930931		4.66592202		3.41065798		-0.00000002		-0.00000241		-0.00000032	
Mg		0.00000000		2.44566103		5.11422319		-0.00000001		 0.00060231		 0.00036251	
Mg		0.00000000		6.88618054		1.70709227		0.00000000		-0.00060266		-0.00036251	
Mg		1.36930931		7.11148802		5.11434481		-0.00000000		 0.00060278		 0.00036250	
Mg		1.36930931		2.22035405		1.70697065		 0.00000002		-0.00060230		-0.00036250	
