# total energy = -24716.1701967 eV

CRYSTAL
PRIMVEC
		9.27319965		0.00000000		0.00000000
		0.00000000		8.72660017		0.00000000
		0.00000000		0.00000000		5.58778901
PRIMECORD
   40 1
Mg		0.00000000		7.89582627		1.39694632		0.00000000		 0.00010397		-0.00000000
Mg		0.00000000		0.83077205		4.19083897		0.00000000		-0.00010397		0.00000000
Mg		4.63659983		5.19407213		4.19083897		0.00000000		-0.00010397		0.00000000
Mg		4.63659983		3.53252804		1.39694632		-0.00000000		 0.00010397		-0.00000000
Mg		0.00000000		2.30993085		1.39694632		0.00000000		-0.00015583		-0.00000000
Mg		0.00000000		6.41666839		4.19083897		-0.00000000		 0.00015583		0.00000000
Mg		4.63659983		2.05336924		4.19083897		0.00000000		 0.00015583		0.00000000
Mg		4.63659983		6.67323094		1.39694632		0.00000000		-0.00015583		0.00000000
Si		2.70591966		0.79935723		0.37214741		-0.00031077		-0.00003640		 0.00050066
Si		6.56727999		7.92724294		5.21563789		 0.00031077		 0.00003640		-0.00050066
Si		1.93068017		3.56394286		3.16603913		 0.00031077		 0.00003640		 0.00050066
Si		7.34251948		5.16265546		2.42174616		-0.00031077		-0.00003640		-0.00050066
Si		6.56727999		0.79935723		2.42174616		 0.00031077		-0.00003640		-0.00050066
Si		2.70591966		7.92724294		3.16603913		-0.00031077		 0.00003640		 0.00050066
Si		7.34251948		3.56394286		5.21563789		-0.00031077		 0.00003640		-0.00050066
Si		1.93068017		5.16265546		0.37214741		 0.00031077		-0.00003640		 0.00050066
O		1.08774632		0.81681032		0.44255325		-0.00043927		-0.00046811		-0.00019804
O		8.18545333		7.90978985		5.14523204		 0.00043927		 0.00046811		 0.00019804
O		3.54885351		3.54648977		3.23644497		 0.00043927		 0.00046811		-0.00019804
O		5.72434614		5.18010855		2.35134032		-0.00043927		-0.00046811		 0.00019804
O		8.18545333		0.81681032		2.35134032		 0.00043927		-0.00046811		 0.00019804
O		1.08774632		7.90978985		3.23644497		-0.00043927		 0.00046811		-0.00019804
O		5.72434614		3.54648977		5.14523204		-0.00043927		 0.00046811		 0.00019804
O		3.54885351		5.18010855		0.44255325		 0.00043927		-0.00046811		-0.00019804
O		3.49321524		2.18688569		0.39114542		 0.00010153		 0.00024913		-0.00066050
O		5.77998442		6.53971355		5.19663988		-0.00010153		-0.00024913		 0.00066050
O		1.14338459		2.17641347		3.18503714		-0.00010153		-0.00024913		-0.00066050
O		8.12981506		6.55018578		2.40274816		 0.00010153		 0.00024913		 0.00066050
O		5.77998442		2.18688569		2.40274816		-0.00010153		 0.00024913		 0.00066050
O		3.49321524		6.53971355		3.18503714		 0.00010153		-0.00024913		-0.00066050
O		8.12981506		2.17641347		5.19663988		 0.00010153		-0.00024913		 0.00066050
O		1.14338459		6.55018578		0.39114542		-0.00010153		 0.00024913		-0.00066050
O		3.24747452		8.50232598		1.61598672		 0.00008287		-0.00038757		-0.00007030
O		6.02572513		0.22427326		3.97179765		-0.00008287		 0.00038757		 0.00007030
O		1.38912531		4.58757242		4.40988029		-0.00008287		 0.00038757		-0.00007030
O		7.88407434		4.13902590		1.17790500		 0.00008287		-0.00038757		 0.00007030
O		6.02572513		8.50232598		1.17790500		-0.00008287		-0.00038757		 0.00007030
O		3.24747452		0.22427326		4.40988029		 0.00008287		 0.00038757		-0.00007030
O		7.88407434		4.58757242		3.97179765		 0.00008287		 0.00038757		 0.00007030
O		1.38912531		4.13902590		1.61598672		-0.00008287		-0.00038757		-0.00007030
