# total energy = -24716.3394273 eV

CRYSTAL
PRIMVEC
		9.27319965		0.00000000		0.00000000
		0.00000000		8.72660017		0.00000000
		0.00000000		0.00000000		5.18866122
PRIMECORD
   40 1
Mg		0.00000000		7.89582627		1.29716391		-0.00000000		-0.00077023		-0.00000000
Mg		0.00000000		0.83077205		3.89149267		0.00000000		 0.00077023		0.00000000
Mg		4.63659983		5.19407213		3.89149267		0.00000000		 0.00077023		-0.00000000
Mg		4.63659983		3.53252804		1.29716391		-0.00000000		-0.00077023		0.00000000
Mg		0.00000000		2.30993085		1.29716391		0.00000000		 0.00016392		0.00000000
Mg		0.00000000		6.41666839		3.89149267		0.00000000		-0.00016392		0.00000000
Mg		4.63659983		2.05336924		3.89149267		0.00000000		-0.00016392		0.00000000
Mg		4.63659983		6.67323094		1.29716391		0.00000000		 0.00016392		0.00000000
Si		2.70591966		0.79935723		0.34556486		 0.00028199		 0.00028059		-0.00048338
Si		6.56727999		7.92724294		4.84309265		-0.00028199		-0.00028059		 0.00048338
Si		1.93068017		3.56394286		2.93989361		-0.00028199		-0.00028059		-0.00048338
Si		7.34251948		5.16265546		2.24876390		 0.00028199		 0.00028059		 0.00048338
Si		6.56727999		0.79935723		2.24876390		-0.00028199		 0.00028059		 0.00048338
Si		2.70591966		7.92724294		2.93989361		 0.00028199		-0.00028059		-0.00048338
Si		7.34251948		3.56394286		4.84309265		 0.00028199		-0.00028059		 0.00048338
Si		1.93068017		5.16265546		0.34556486		-0.00028199		 0.00028059		-0.00048338
O		1.08774632		0.81681032		0.41094184		-0.00043821		 0.00003217		 0.00022955
O		8.18545333		7.90978985		4.77771567		 0.00043821		-0.00003217		-0.00022955
O		3.54885351		3.54648977		3.00527060		 0.00043821		-0.00003217		 0.00022955
O		5.72434614		5.18010855		2.18338691		-0.00043821		 0.00003217		-0.00022955
O		8.18545333		0.81681032		2.18338691		 0.00043821		 0.00003217		-0.00022955
O		1.08774632		7.90978985		3.00527060		-0.00043821		-0.00003217		 0.00022955
O		5.72434614		3.54648977		4.77771567		-0.00043821		-0.00003217		-0.00022955
O		3.54885351		5.18010855		0.41094184		 0.00043821		 0.00003217		 0.00022955
O		3.49321524		2.18688569		0.36320619		 0.00067044		 0.00015046		 0.00091372
O		5.77998442		6.53971355		4.82545225		-0.00067044		-0.00015046		-0.00091372
O		1.14338459		2.17641347		2.95753495		-0.00067044		-0.00015046		 0.00091372
O		8.12981506		6.55018578		2.23112256		 0.00067044		 0.00015046		-0.00091372
O		5.77998442		2.18688569		2.23112256		-0.00067044		 0.00015046		-0.00091372
O		3.49321524		6.53971355		2.95753495		 0.00067044		-0.00015046		 0.00091372
O		8.12981506		2.17641347		4.82545225		 0.00067044		-0.00015046		-0.00091372
O		1.14338459		6.55018578		0.36320619		-0.00067044		 0.00015046		 0.00091372
O		3.24747452		8.50232598		1.50055949		-0.00007629		-0.00016721		-0.00010833
O		6.02572513		0.22427326		3.68809802		 0.00007629		 0.00016721		 0.00010833
O		1.38912531		4.58757242		4.09488918		 0.00007629		 0.00016721		-0.00010833
O		7.88407434		4.13902590		1.09376926		-0.00007629		-0.00016721		 0.00010833
O		6.02572513		8.50232598		1.09376926		 0.00007629		-0.00016721		 0.00010833
O		3.24747452		0.22427326		4.09488918		-0.00007629		 0.00016721		-0.00010833
O		7.88407434		4.58757242		3.68809802		-0.00007629		 0.00016721		 0.00010833
O		1.38912531		4.13902590		1.50055949		 0.00007629		-0.00016721		-0.00010833
