# total energy = -10313.4262302 eV	

CRYSTAL	
PRIMVEC	
		4.97999984		0.00000000		0.00000000	
		0.00000000		8.84999756		1.41599822	
		0.00000000		0.43999793		2.75000073	
PRIMCOORD
   14 1	
Si		0.00000000		0.00000000		0.00000000		0.00000000		0.00000000		0.00000000	
Si		2.48999992		4.42499978		0.70800010		-0.00000000		0.00000000		0.00000000	
Mg		0.40786199		3.16616488		1.84638574		 0.00023393		 0.00062468		 0.00001443	
Mg		4.57213786		6.12383459		2.31961371		-0.00023393		-0.00062468		-0.00001443	
Mg		2.08213793		7.59116466		2.55438584		-0.00023393		 0.00062468		 0.00001443	
Mg		2.89786191		1.69883482		1.61161410		 0.00023393		-0.00062468		-0.00001443	
O		1.07767197		0.61648016		1.43843710		-0.00037461		 0.00046839		-0.00072841	
O		3.90232788		8.67352081		2.72756285		 0.00037461		-0.00046839		 0.00072841	
O		1.41232796		5.04147993		2.14643670		 0.00037461		 0.00046839		-0.00072841	
O		3.56767189		4.24852004		2.01956274		-0.00037461		-0.00046839		 0.00072841	
O		1.95464994		2.73199505		0.43711899		 0.00073478		-0.00079758		 0.00009348	
O		3.02534991		6.11800600		0.97888072		-0.00073478		 0.00079758		-0.00009348	
O		0.53534998		7.15699482		1.14511909		-0.00073478		-0.00079758		 0.00009348	
O		4.44464986		1.69300473		0.27088112		 0.00073478		 0.00079758		-0.00009348	
