# total energy = -10313.4262299 eV	

CRYSTAL	
PRIMVEC	
		4.97999984		0.00000000		0.00000000	
		0.00000000		8.84999756		-1.41599822	
		0.00000000		-0.43999793		2.75000073	
PRIMCOORD
   14 1	
Si		0.00000000		0.00000000		0.00000000		0.00000000		0.00000000		0.00000000	
Si		2.48999992		4.42499978		-0.70800010		0.00000000		0.00000000		0.00000000	
Mg		0.40786199		2.72616496		0.90361400		 0.00023416		 0.00062426		-0.00001479	
Mg		4.57213786		5.68383468		0.43038603		-0.00023416		-0.00062426		 0.00001479	
Mg		2.08213793		7.15116474		0.19561390		-0.00023416		 0.00062426		-0.00001479	
Mg		2.89786191		1.25883490		1.13838613		 0.00023416		-0.00062426		 0.00001479	
O		1.07767197		0.17648024		1.31156314		-0.00037417		 0.00046728		 0.00072953	
O		3.90232788		8.23352089		0.02243689		 0.00037417		-0.00046728		-0.00072953	
O		1.41232796		4.60148002		0.60356303		 0.00037417		 0.00046728		 0.00072953	
O		3.56767189		3.80852012		0.73043700		-0.00037417		-0.00046728		-0.00072953	
O		1.95464994		2.73199505		-0.43711899		 0.00073464		-0.00079783		-0.00009303	
O		3.02534991		6.11800600		-0.97888072		-0.00073464		 0.00079783		 0.00009303	
O		0.53534998		7.15699482		-1.14511909		-0.00073464		-0.00079783		-0.00009303	
O		4.44464986		1.69300473		-0.27088112		 0.00073464		 0.00079783		 0.00009303	
