# total energy = -49431.4209725 eV

CRYSTAL
PRIMVEC
		18.23300630		0.00000000		-2.91728913
		0.00000000		8.81909813		0.00000000
		-0.82883428		0.00000000		5.18020042
PRIMECORD
   80 1
Mg		6.14306039		5.76857361		3.38983565		-0.00018695		 0.00017823		-0.00015608
Mg		11.26110794		3.05052636		-1.12691513		 0.00018695		-0.00017823		 0.00015608
Mg		1.95182008		3.05052636		1.53664033		-0.00034450		-0.00049557		 0.00036962
Mg		15.45234640		5.76857361		0.72628019		 0.00034450		 0.00049557		-0.00036962
Mg		10.84669080		1.35902270		1.46318509		 0.00018695		 0.00017823		 0.00015608
Mg		6.55747753		7.46007727		0.79973544		-0.00018695		-0.00017823		-0.00015608
Mg		15.86676170		7.46007727		-1.86382002		 0.00034450		-0.00049557		-0.00036962
Mg		1.53740478		1.35902270		4.12674055		-0.00034450		 0.00049557		 0.00036962
Mg		6.57455018		4.29666570		0.75965182		-0.00044925		-0.00001405		-0.00027705
Mg		10.82961814		4.52243427		1.50326871		 0.00044925		 0.00001405		 0.00027705
Mg		1.53259837		4.52243427		4.09015603		 0.00044950		-0.00016872		 0.00042148
Mg		15.87156811		4.29666570		-1.82723735		-0.00044950		 0.00016872		-0.00042148
Mg		11.24403528		8.70621661		-1.08683150		 0.00044925		-0.00001405		 0.00027705
Mg		6.16013304		0.11288521		3.34975018		-0.00044925		 0.00001405		-0.00027705
Mg		15.45715282		0.11288521		0.76286471		-0.00044950		-0.00016872		-0.00042148
Mg		1.94701551		8.70621661		1.50005766		 0.00044950		 0.00016872		 0.00042148
Si		4.90831944		3.01436838		-0.52992252		 0.00023092		-0.00044279		 0.00028648
Si		12.49584704		5.80473159		2.79284305		-0.00023092		 0.00044279		-0.00028648
Si		3.70988604		5.80473159		2.18561904		-0.00006881		 0.00037421		 0.00033047
Si		13.69428229		3.01436838		0.07729964		 0.00006881		-0.00037421		-0.00033047
Si		12.91026234		7.42391744		0.20274283		-0.00023092		-0.00044279		-0.00028648
Si		4.49390414		1.39518253		2.06017769		 0.00023092		 0.00044279		 0.00028648
Si		13.27986515		1.39518253		2.66740170		 0.00006881		 0.00037421		-0.00033047
Si		4.12430133		7.42391744		-0.40447933		-0.00006881		-0.00037421		 0.00033047
Si		7.97365835		2.97556438		2.75269480		 0.00031613		-0.00002717		-0.00021515
Si		9.43050813		5.84353559		-0.48977427		-0.00031613		 0.00002717		 0.00021515
Si		0.23427535		5.84353559		1.46720120		 0.00012237		 0.00020349		 0.00009524
Si		17.16989113		2.97556438		0.79571932		-0.00012237		-0.00020349		-0.00009524
Si		9.01609283		7.38511344		2.10032594		-0.00031613		-0.00002717		 0.00021515
Si		8.38807365		1.43398653		0.16259459		 0.00031613		 0.00002717		-0.00021515
Si		17.58430827		1.43398653		-1.79438089		-0.00012237		 0.00020349		-0.00009524
Si		-0.18013994		7.38511344		4.05730142		 0.00012237		-0.00020349		 0.00009524
O		3.31757508		3.00466877		-0.35919414		 0.00017487		 0.00006589		-0.00029857
O		14.08659324		5.81443305		2.62211467		-0.00017487		-0.00006589		 0.00029857
O		5.32814865		5.81443305		1.84290852		 0.00014209		-0.00017361		-0.00015025
O		12.07601968		3.00466877		0.42001201		-0.00014209		 0.00017361		 0.00015025
O		14.50100854		7.41421783		0.03201446		-0.00017487		 0.00006589		 0.00029857
O		2.90315979		1.40488214		2.23090607		 0.00017487		-0.00006589		-0.00029857
O		11.66160254		1.40488214		3.01011222		-0.00014209		-0.00017361		 0.00015025
O		5.74256394		7.41421783		-0.74719170		 0.00014209		 0.00017361		-0.00015025
O		5.64211669		4.43512665		-0.68569248		-0.00016648		-0.00036781		 0.00006667
O		11.76204979		4.38397517		2.94861300		 0.00016648		 0.00036781		-0.00006667
O		2.98868739		4.38397517		2.26264909		 0.00000010		 0.00021120		-0.00028841
O		14.41547909		4.43512665		0.00026959		-0.00000010		-0.00021120		 0.00028841
O		12.17646693		0.02557574		0.35851279		 0.00016648		-0.00036781		-0.00006667
O		5.22769955		8.79352423		1.90440773		-0.00016648		 0.00036781		 0.00006667
O		14.00106380		8.79352423		2.59037165		-0.00000010		 0.00021120		 0.00028841
O		3.40310453		0.02557574		-0.32744928		 0.00000010		-0.00021120		-0.00028841
O		4.82589394		1.96136828		3.42744866		 0.00018495		 0.00050156		 0.00005396
O		12.57827254		6.85773169		-1.16452814		-0.00018495		-0.00050156		-0.00005396
O		3.32584551		6.85773169		1.14366464		-0.00085426		-0.00029604		-0.00005386
O		14.07832281		1.96136828		1.11925588		 0.00085426		 0.00029604		 0.00005386
O		12.16385724		6.37091734		1.42557022		-0.00018495		 0.00050156		-0.00005396
O		5.24030924		2.44818263		0.83734845		 0.00018495		-0.00050156		 0.00005396
O		14.49273811		2.44818263		-1.47084433		 0.00085426		-0.00029604		 0.00005386
O		2.91142837		6.37091734		3.73376301		-0.00085426		 0.00029604		-0.00005386
O		9.58918446		3.01084158		2.49370416		 0.00052647		-0.00020260		 0.00034214
O		7.81498202		5.80825839		-0.23078549		-0.00052647		 0.00020260		-0.00034214
O		16.85191435		5.80825839		-1.19212579		 0.00013288		-0.00041200		-0.00033562
O		0.55225213		3.01084158		3.45504631		-0.00013288		 0.00041200		 0.00033562
O		7.40056672		7.42039065		2.35931472		-0.00052647		-0.00020260		-0.00034214
O		10.00360160		1.39870932		-0.09639420		 0.00052647		 0.00020260		 0.00034214
O		0.96666928		1.39870932		0.86494610		-0.00013288		-0.00041200		 0.00033562
O		16.43749905		7.42039065		1.39797442		 0.00013288		 0.00041200		-0.00033562
O		7.31205519		4.26491714		2.31290503		-0.00045708		-0.00025032		-0.00005822
O		10.09211314		4.55418283		-0.04998635		 0.00045708		 0.00025032		 0.00005822
O		1.07507305		4.55418283		0.78702973		-0.00002513		 0.00009771		-0.00064976
O		16.32909527		4.26491714		1.47589079		 0.00002513		-0.00009771		 0.00064976
O		9.67769599		8.67446620		2.54011386		 0.00045708		-0.00025032		 0.00005822
O		7.72647049		0.14463377		-0.27719334		-0.00045708		 0.00025032		-0.00005822
O		16.74351057		0.14463377		-1.11420942		 0.00002513		 0.00009771		 0.00064976
O		0.66065776		8.67446620		3.37712995		-0.00002513		-0.00009771		-0.00064976
O		7.67406708		1.72060620		1.81584450		-0.00020727		-0.00019046		-0.00007472
O		9.73009940		7.09849377		0.44707602		 0.00020727		 0.00019046		 0.00007472
O		0.85727578		7.09849377		0.38273690		 0.00058017		 0.00040120		 0.00032385
O		16.54689070		1.72060620		1.88018362		-0.00058017		-0.00040120		-0.00032385
O		9.31568410		6.13015711		3.03717624		 0.00020727		-0.00019046		 0.00007472
O		8.08848422		2.68894471		-0.77425571		-0.00020727		 0.00019046		-0.00007472
O		16.96130600		2.68894471		-0.70991659		-0.00058017		 0.00040120		-0.00032385
O		0.44286048		6.13015711		2.97283711		 0.00058017		-0.00040120		 0.00032385
