# total energy = -20638.6582956 eV	

CRYSTAL	
PRIMVEC	
		10.20140980		0.00000000		0.00000000	
		0.00000000		5.83389042		0.00000000	
		0.00000000		0.00000000		4.75533617	
PRIMCOORD
   28 1	
Mg		0.00000000		0.00000000		0.00000000		0.00000000		0.00000000		0.00000000	
Mg		5.10070490		0.00000000		2.37767013		0.00000000		0.00000000		0.00000000	
Mg		0.00000000		2.91694623		0.00000000		0.00000000		0.00000000		-0.00000000	
Mg		5.10070490		2.91694623		2.37767013		0.00000000		-0.00000000		-0.00000000	
Mg		2.82885094		1.45847312		4.71492022		 0.00022565		-0.00000000		-0.00023863	
Mg		7.37255886		4.37542037		0.04042003		-0.00022565		0.00000000		 0.00023863	
Mg		2.27185396		4.37542037		2.33725010		-0.00022565		0.00000000		-0.00023863	
Mg		7.92955584		1.45847312		2.41809015		 0.00022565		-0.00000000		 0.00023863	
Si		0.95893252		1.45847312		2.02767710		-0.00010716		0.00000000		-0.00023623	
Si		9.24247830		4.37542037		2.72766315		 0.00010716		0.00000000		 0.00023623	
Si		4.14177340		4.37542037		4.40534722		 0.00010716		0.00000000		-0.00023623	
Si		6.05963742		1.45847312		0.34999303		-0.00010716		0.00000000		 0.00023623	
O		0.93444914		1.45847312		3.63926215		 0.00069998		0.00000000		-0.00001353	
O		9.26696066		4.37542037		1.11607810		-0.00069998		0.00000000		 0.00001353	
O		4.16625576		4.37542037		1.26159203		-0.00069998		0.00000000		-0.00001353	
O		6.03515404		1.45847312		3.49374822		 0.00069998		0.00000000		 0.00001353	
O		4.55901004		1.45847312		1.05140626		-0.00026771		0.00000000		 0.00003594	
O		5.64239976		4.37542037		3.70393501		 0.00026771		0.00000000		-0.00003594	
O		0.54169486		4.37542037		3.42907639		 0.00026771		-0.00000000		 0.00003594	
O		9.65971596		1.45847312		1.32626386		-0.00026771		0.00000000		-0.00003594	
O		1.65976937		0.19368499		1.32103258		 0.00023989		 0.00024203		-0.00026641	
O		8.54164042		5.64020748		3.43430665		-0.00023989		-0.00024203		 0.00026641	
O		3.44093552		5.64020748		3.69870271		-0.00023989		-0.00024203		-0.00026641	
O		6.76047529		0.19368499		1.05663652		 0.00023989		 0.00024203		 0.00026641	
O		8.54164042		3.11063224		3.43430665		-0.00023989		 0.00024203		 0.00026641	
O		1.65976937		2.72326124		1.32103258		 0.00023989		-0.00024203		-0.00026641	
O		6.76047529		2.72326124		1.05663652		 0.00023989		-0.00024203		 0.00026641	
O		3.44093552		3.11063224		3.69870271		-0.00023989		 0.00024203		-0.00026641	
