# total energy = -20638.8402761 eV	

CRYSTAL	
PRIMVEC	
		10.20140980		0.00000000		0.00000000	
		0.00000000		6.13306717		0.00000000	
		0.00000000		0.00000000		4.75533617	
PRIMCOORD
   28 1	
Mg		0.00000000		0.00000000		0.00000000		-0.00000000		0.00000000		0.00000000	
Mg		5.10070490		0.00000000		2.37767013		-0.00000000		0.00000000		0.00000000	
Mg		0.00000000		3.06653256		0.00000000		0.00000000		0.00000000		0.00000000	
Mg		5.10070490		3.06653256		2.37767013		-0.00000000		-0.00000000		0.00000000	
Mg		2.82885094		1.53326679		4.71492022		-0.00036920		0.00000000		-0.00062029	
Mg		7.37255886		4.59980038		0.04042003		 0.00036920		0.00000000		 0.00062029	
Mg		2.27185396		4.59980038		2.33725010		 0.00036920		0.00000000		-0.00062029	
Mg		7.92955584		1.53326679		2.41809015		-0.00036920		0.00000000		 0.00062029	
Si		0.95893252		1.53326679		2.02767710		 0.00012895		0.00000000		-0.00033639	
Si		9.24247830		4.59980038		2.72766315		-0.00012895		0.00000000		 0.00033639	
Si		4.14177340		4.59980038		4.40534722		-0.00012895		0.00000000		-0.00033639	
Si		6.05963742		1.53326679		0.34999303		 0.00012895		0.00000000		 0.00033639	
O		0.93444914		1.53326679		3.63926215		-0.00091693		0.00000000		-0.00051171	
O		9.26696066		4.59980038		1.11607810		 0.00091693		0.00000000		 0.00051171	
O		4.16625576		4.59980038		1.26159203		 0.00091693		-0.00000000		-0.00051171	
O		6.03515404		1.53326679		3.49374822		-0.00091693		0.00000000		 0.00051171	
O		4.55901004		1.53326679		1.05140626		-0.00025532		0.00000000		-0.00006118	
O		5.64239976		4.59980038		3.70393501		 0.00025532		0.00000000		 0.00006118	
O		0.54169486		4.59980038		3.42907639		 0.00025532		0.00000000		-0.00006118	
O		9.65971596		1.53326679		1.32626386		-0.00025532		-0.00000000		 0.00006118	
O		1.65976937		0.20361810		1.32103258		-0.00016940		-0.00047597		-0.00023959	
O		8.54164042		5.92944907		3.43430665		 0.00016940		 0.00047597		 0.00023959	
O		3.44093552		5.92944907		3.69870271		 0.00016940		 0.00047597		-0.00023959	
O		6.76047529		0.20361810		1.05663652		-0.00016940		-0.00047597		 0.00023959	
O		8.54164042		3.27015066		3.43430665		 0.00016940		-0.00047597		 0.00023959	
O		1.65976937		2.86291548		1.32103258		-0.00016940		 0.00047597		-0.00023959	
O		6.76047529		2.86291548		1.05663652		-0.00016940		 0.00047597		 0.00023959	
O		3.44093552		3.27015066		3.69870271		 0.00016940		-0.00047597		-0.00023959	
