# total energy = -20637.5240421 eV	

CRYSTAL	
PRIMVEC	
		10.20140980		0.00000000		0.00000000	
		0.00000000		6.58182718		0.00000000	
		0.00000000		0.00000000		4.75533617	
PRIMCOORD
   28 1	
Mg		0.00000000		0.00000000		0.00000000		0.00000000		0.00000000		0.00000000	
Mg		5.10070490		0.00000000		2.37767013		-0.00000000		0.00000000		0.00000000	
Mg		0.00000000		3.29091359		0.00000000		0.00000000		0.00000000		0.00000000	
Mg		5.10070490		3.29091359		2.37767013		0.00000000		0.00000000		0.00000000	
Mg		2.82885094		1.64545680		4.71492022		 0.00018646		-0.00000000		-0.00001792	
Mg		7.37255886		4.93637141		0.04042003		-0.00018646		0.00000000		 0.00001792	
Mg		2.27185396		4.93637141		2.33725010		-0.00018646		0.00000000		-0.00001792	
Mg		7.92955584		1.64545680		2.41809015		 0.00018646		-0.00000000		 0.00001792	
Si		0.95893252		1.64545680		2.02767710		-0.00023273		0.00000000		 0.00009295	
Si		9.24247830		4.93637141		2.72766315		 0.00023273		0.00000000		-0.00009295	
Si		4.14177340		4.93637141		4.40534722		 0.00023273		0.00000000		 0.00009295	
Si		6.05963742		1.64545680		0.34999303		-0.00023273		0.00000000		-0.00009295	
O		0.93444914		1.64545680		3.63926215		 0.00069018		-0.00000000		 0.00017743	
O		9.26696066		4.93637141		1.11607810		-0.00069018		-0.00000000		-0.00017743	
O		4.16625576		4.93637141		1.26159203		-0.00069018		0.00000000		 0.00017743	
O		6.03515404		1.64545680		3.49374822		 0.00069018		0.00000000		-0.00017743	
O		4.55901004		1.64545680		1.05140626		-0.00021462		-0.00000000		 0.00020602	
O		5.64239976		4.93637141		3.70393501		 0.00021462		0.00000000		-0.00020602	
O		0.54169486		4.93637141		3.42907639		 0.00021462		0.00000000		 0.00020602	
O		9.65971596		1.64545680		1.32626386		-0.00021462		0.00000000		-0.00020602	
O		1.65976937		0.21851726		1.32103258		-0.00042518		-0.00015040		-0.00002500	
O		8.54164042		6.36331095		3.43430665		 0.00042518		 0.00015040		 0.00002500	
O		3.44093552		6.36331095		3.69870271		 0.00042518		 0.00015040		-0.00002500	
O		6.76047529		0.21851726		1.05663652		-0.00042518		-0.00015040		 0.00002500	
O		8.54164042		3.50943085		3.43430665		 0.00042518		-0.00015040		 0.00002500	
O		1.65976937		3.07239735		1.32103258		-0.00042518		 0.00015040		-0.00002500	
O		6.76047529		3.07239735		1.05663652		-0.00042518		 0.00015040		 0.00002500	
O		3.44093552		3.50943085		3.69870271		 0.00042518		-0.00015040		-0.00002500	
