# total energy = -24714.2359458 eV

CRYSTAL
PRIMVEC
		9.06176478		0.00000000		0.00000000
		0.00000000		8.66010206		0.00000000
		-1.60279058		0.00000000		4.98418811
PRIMECORD
   40 1
Mg		-0.40069855		7.83046306		1.24604793		-0.00000346		 0.00007187		 0.00000446
Mg		-1.20209566		0.82963719		3.73814290		 0.00000346		-0.00007187		-0.00000446
Mg		4.13018384		3.50041294		1.24604793		-0.00000331		 0.00002596		 0.00000436
Mg		3.32878674		5.15968731		3.73814290		 0.00000331		-0.00002596		-0.00000436
Mg		-0.40069855		2.47332533		1.24604793		 0.00000247		-0.00014596		 0.00000739
Mg		-1.20209566		6.18677492		3.73814290		-0.00000247		 0.00014596		-0.00000739
Mg		4.13018384		6.80337455		1.24604793		 0.00000245		-0.00003693		 0.00000733
Mg		3.32878674		1.85672479		3.73814290		-0.00000245		 0.00003693		-0.00000733
Si		2.25431335		0.79655631		1.22461595		 0.00051009		-0.00020553		-0.00011160
Si		5.20465723		7.86354394		3.75957488		-0.00051009		 0.00020553		 0.00011160
Si		6.00605524		0.79655631		1.26747991		-0.00038579		-0.00034682		 0.00022723
Si		1.45291624		7.86354394		3.71671092		 0.00038579		 0.00034682		-0.00022723
Si		6.78519574		5.12660553		1.22461595		 0.00047516		 0.00015962		 0.00001526
Si		0.67377483		3.53349381		3.75957488		-0.00047516		-0.00015962		-0.00001526
Si		1.47517194		5.12660553		1.26747991		-0.00034507		 0.00001281		 0.00010536
Si		5.98379773		3.53349381		3.71671092		 0.00034507		-0.00001281		-0.00010536
O		0.80279443		0.71705563		0.68781785		 0.00028819		 0.00005071		 0.00030224
O		6.65617705		7.94304280		4.29637298		-0.00028819		-0.00005071		-0.00030224
O		7.45757416		0.71705563		1.80427711		-0.00038893		 0.00005809		-0.00034686
O		0.00139642		7.94304280		3.17991372		 0.00038893		-0.00005809		 0.00034686
O		5.33367591		5.04710666		0.68781785		 0.00037328		 0.00000129		 0.00033254
O		2.12529375		3.61299358		4.29637298		-0.00037328		-0.00000129		-0.00033254
O		2.92669086		5.04710666		1.80427711		-0.00047835		 0.00000865		-0.00037949
O		4.53227881		3.61299358		3.17991372		 0.00047835		-0.00000865		 0.00037949
O		2.78532914		2.23170787		1.58447404		-0.00005400		-0.00013478		-0.00001501
O		4.67364053		6.42839328		3.39971679		 0.00005400		 0.00013478		 0.00001501
O		5.47503763		2.23170787		0.90762092		 0.00000922		-0.00000848		-0.00005110
O		1.98393204		6.42839328		4.07656991		-0.00000922		 0.00000848		 0.00005110
O		7.31621153		6.56175709		1.58447404		-0.00015600		-0.00044453		-0.00011805
O		0.14275904		2.09834225		3.39971679		 0.00015600		 0.00044453		 0.00011805
O		0.94415615		6.56175709		0.90762092		 0.00010872		-0.00031284		 0.00004944
O		6.51481443		2.09834225		4.07656991		-0.00010872		 0.00031284		-0.00004944
O		3.16923081		0.05629078		0.12859188		 0.00001257		-0.00009971		 0.00009690
O		4.28973886		8.60380856		4.85559895		-0.00001257		 0.00009971		-0.00009690
O		5.09113597		0.05629078		2.36350399		-0.00000113		-0.00008458		-0.00010946
O		2.36783370		8.60380856		2.62068775		 0.00000113		 0.00008458		 0.00010946
O		7.70011410		4.38634090		0.12859188		 0.00006440		-0.00009168		 0.00006157
O		-0.24114262		4.27375935		4.85559895		-0.00006440		 0.00009168		-0.00006157
O		0.56025358		4.38634090		2.36350399		-0.00005251		-0.00007652		-0.00007497
O		6.89871700		4.27375935		2.62068775		 0.00005251		 0.00007652		 0.00007497
