# total energy = -11146.0451305 eV

CRYSTAL
PRIMVEC
		7.44099980		0.00000000		0.00000000
		0.00000000		4.40999782		0.00000000
		0.00000000		0.00000000		7.46280193
PRIMECORD
   12 1
Ca		0.14547229		1.10250020		5.07970417		 0.00061361		-0.00000000		 0.00042189
Ca		7.29552751		3.30749985		2.38309626		-0.00061361		0.00000000		-0.00042189
Ca		3.57502761		3.30749985		1.34830395		-0.00061361		0.00000000		 0.00042189
Ca		3.86597219		1.10250020		6.11449574		 0.00061361		-0.00000000		-0.00042189
Si		2.01346014		1.10250020		2.87765562		 0.00066572		0.00000000		-0.00030872
Si		5.42753966		3.30749985		4.58514408		-0.00066572		0.00000000		 0.00030872
Si		1.70703976		3.30749985		6.60905509		-0.00066572		0.00000000		-0.00030872
Si		5.73396003		1.10250020		0.85374386		 0.00066572		0.00000000		 0.00030872
Mg		1.07254571		1.10250020		0.47627607		-0.00015586		0.00000000		 0.00069211
Mg		6.36845409		3.30749985		6.98652362		 0.00015586		0.00000000		-0.00069211
Mg		2.64795419		3.30749985		4.20767555		 0.00015586		-0.00000000		 0.00069211
Mg		4.79304561		1.10250020		3.25512415		-0.00015586		0.00000000		-0.00069211
