# total energy = -11146.6043047 eV

CRYSTAL
PRIMVEC
		7.44099980		0.00000000		0.00000000
		0.00000000		4.40999782		0.00000000
		0.00000000		0.00000000		7.87739955
PRIMECORD
   12 1
Ca		0.14547229		1.10250020		5.36191004		 0.00007379		0.00000000		 0.00055411
Ca		7.29552751		3.30749985		2.51549025		-0.00007379		0.00000000		-0.00055411
Ca		3.57502761		3.30749985		1.42321027		-0.00007379		0.00000000		 0.00055411
Ca		3.86597219		1.10250020		6.45419003		 0.00007379		0.00000000		-0.00055411
Si		2.01346014		1.10250020		3.03752476		-0.00093224		0.00000000		-0.00028655
Si		5.42753966		3.30749985		4.83987480		 0.00093224		0.00000000		 0.00028655
Si		1.70703976		3.30749985		6.97622453		 0.00093224		0.00000000		-0.00028655
Si		5.73396003		1.10250020		0.90117502		-0.00093224		0.00000000		 0.00028655
Mg		1.07254571		1.10250020		0.50273627		 0.00002489		0.00000000		 0.00080177
Mg		6.36845409		3.30749985		7.37466403		-0.00002489		-0.00000000		-0.00080177
Mg		2.64795419		3.30749985		4.44143605		-0.00002489		-0.00000000		 0.00080177
Mg		4.79304561		1.10250020		3.43596425		 0.00002489		0.00000000		-0.00080177
