# total energy = -18274.6230274 eV

CRYSTAL
PRIMVEC
		5.30263943		0.00156878		-0.00005870
		-2.64996437		4.59095042		0.00005336
		-0.00020277		0.00007470		12.11985980
PRIMECORD
   28 1
Mg		1.86871846		0.00136762		2.88002495		 0.00070234		 0.00006289		-0.00039645
Mg		-0.93333205		1.61736564		2.88034404		-0.00030660		 0.00058901		-0.00036288
Mg		1.71714297		2.97407515		2.87988781		-0.00040226		-0.00062859		-0.00040990
Mg		3.43388362		0.00031856		8.93995004		-0.00071335		-0.00006190		-0.00039763
Mg		-1.71681908		2.97352821		8.94030382		 0.00031044		-0.00058615		-0.00036948
Mg		0.93523754		1.61855344		8.93984066		 0.00040699		 0.00062950		-0.00041436
Si		0.00054000		3.06092762		0.08343583		-0.00003416		-0.00001605		-0.00008076
Si		2.65195096		1.53164867		6.14333105		 0.00002697		 0.00004019		-0.00007536
Si		0.00037619		3.06134543		6.14336680		-0.00004087		-0.00001036		-0.00007526
Si		2.65212172		1.53126395		0.08339955		 0.00002142		-0.00000574		-0.00008060
O		0.00034897		3.06080223		1.67764110		-0.00004681		-0.00003415		 0.00013183
O		2.65223857		1.53175913		7.73754112		 0.00004326		 0.00003346		 0.00013513
O		0.00013180		3.06133903		7.73757687		-0.00005254		 0.00001179		 0.00013512
O		2.65242106		1.53119138		1.67760482		 0.00005223		-0.00001147		 0.00013185
O		2.81116974		0.00059496		11.64660995		-0.00000820		-0.00002727		 0.00001325
O		-1.40491813		2.43338733		11.64604807		 0.00003437		-0.00006078		-0.00005648
O		1.24592774		2.15715061		11.64705284		 0.00000811		-0.00003837		 0.00006284
O		2.49100226		0.00112590		5.58677450		 0.00000487		 0.00002269		 0.00000883
O		-1.24546191		2.15773970		5.58602799		-0.00002808		 0.00007504		-0.00006489
O		1.40635459		2.43553987		5.58714215		 0.00000490		 0.00002742		 0.00005501
O		3.64802637		0.00148021		3.70480461		-0.00025242		 0.00003295		 0.00037863
O		-1.82396009		3.16015321		3.70406931		 0.00006507		-0.00008925		 0.00028192
O		0.82790229		1.43391449		3.70513545		 0.00014518		 0.00029494		 0.00041288
O		1.65436707		0.00014727		9.76467101		 0.00024531		-0.00003333		 0.00036428
O		-0.82625133		1.43097276		9.76413528		-0.00005806		 0.00008236		 0.00027766
O		1.82458014		3.15864579		9.76512351		-0.00013889		-0.00028930		 0.00040052
O		0.00069955		-0.00313010		2.02797405		 0.00005426		-0.00025295		-0.00000240
O		-0.00048984		0.00297695		8.08792103		-0.00004344		 0.00024342		-0.00000331
