# total energy = -18274.9826449 eV

CRYSTAL
PRIMVEC
		5.32541881		0.00093914		-0.00035218
		-2.66189567		4.61689405		0.00020277
		-0.00115258		0.00010138		12.26966266
PRIMECORD
   28 1
Mg		1.87769361		0.00084522		2.91113596		 0.00044054		 0.00004396		-0.00006041
Mg		-0.93822836		1.62963684		2.91079979		-0.00015991		 0.00055150		-0.00013358
Mg		1.72397092		2.98759444		2.91037558		-0.00022425		-0.00057477		-0.00016633
Mg		3.44720014		0.00023052		9.04600731		-0.00042138		-0.00003856		-0.00005616
Mg		-1.72500077		2.98677270		9.04566741		 0.00014246		-0.00056890		-0.00014721
Mg		0.93814299		1.63086519		9.04524480		 0.00020107		 0.00059356		-0.00017626
Si		-0.00014407		3.07886992		0.09316816		-0.00004356		 0.00006206		-0.00015687
Si		2.66276010		1.53904117		6.22783621		 0.00003684		-0.00006356		-0.00015991
Si		-0.00010725		3.07911591		6.22802084		-0.00000301		 0.00007519		-0.00015972
Si		2.66272168		1.53879784		0.09298354		-0.00000900		-0.00007838		-0.00015706
O		-0.00039326		3.07928293		1.69216729		-0.00007352		 0.00008800		 0.00017446
O		2.66329370		1.53871994		7.82684441		 0.00007715		-0.00008966		 0.00017212
O		0.00013714		3.07955507		7.82702904		 0.00001870		 0.00011644		 0.00017224
O		2.66273715		1.53822209		1.69198267		-0.00001277		-0.00011382		 0.00017447
O		2.77932342		0.00044075		11.80315699		-0.00017227		-0.00001292		-0.00005729
O		-1.39256796		2.41201398		11.80518573		-0.00003978		-0.00003211		 0.00013514
O		1.26991573		2.20490301		11.80556672		-0.00005573		-0.00002135		 0.00019890
O		2.54377743		0.00067927		5.66885499		 0.00014998		 0.00001470		-0.00001918
O		-1.27146050		2.20510097		5.67011215		 0.00002114		 0.00004101		 0.00011571
O		1.39147728		2.41307905		5.67054383		 0.00003898		 0.00001869		 0.00018744
O		3.66714579		0.00091406		3.73239333		-0.00012124		 0.00002048		-0.00003000
O		-1.83088889		3.17684956		3.73374441		 0.00031859		-0.00038380		 0.00017594
O		0.83216042		1.44199266		3.73424599		 0.00037369		 0.00052020		 0.00025340
O		1.65644918		0.00011686		9.86666812		 0.00009331		-0.00002153		-0.00006885
O		-0.83227354		1.44043402		9.86895246		-0.00031846		 0.00040117		 0.00018372
O		1.83014292		3.17571779		9.86931798		-0.00037062		-0.00053484		 0.00026969
O		-0.00536748		-0.00189962		2.07093632		-0.00055527		-0.00017025		-0.00033885
O		0.00651899		0.00185639		8.20584663		 0.00066836		 0.00015750		-0.00032555
