# total energy = -18274.0965397 eV

CRYSTAL
PRIMVEC
		5.33600010		0.00000000		0.00000000
		-2.66800005		4.62110949		0.00000000
		0.00000000		0.00000000		14.61400229
PRIMECORD
   28 1
Mg		1.77155203		0.00000000		3.19754310		 0.00811791		 0.00000357		 0.00663185
Mg		-0.88577602		1.53420888		3.19754310		-0.00405647		 0.00699587		 0.00663278
Mg		1.78222403		3.08690220		3.19754310		-0.00406274		-0.00699922		 0.00663234
Mg		3.56444807		0.00000000		10.50454425		-0.00814916		-0.00001128		 0.00665284
Mg		-1.78222403		3.08690220		10.50454425		 0.00406421		-0.00700487		 0.00665114
Mg		0.88577602		1.53420888		10.50454425		 0.00408570		 0.00701890		 0.00665058
Si		0.00000000		3.08074126		0.42672900		-0.00000052		 0.00000445		 0.00030607
Si		2.66800005		1.54036983		7.73372908		 0.00000210		-0.00000188		 0.00030512
Si		0.00000000		3.08074126		7.73372908		-0.00000427		 0.00000163		 0.00030501
Si		2.66800005		1.54037090		0.42672900		-0.00000138		-0.00000313		 0.00030617
O		0.00000000		3.08074126		2.05472822		-0.00000133		-0.00000180		-0.02292064
O		2.66800005		1.54036983		9.36172830		 0.00000005		-0.00000105		-0.02291201
O		0.00000000		3.08074126		9.36172830		-0.00000188		 0.00000118		-0.02291144
O		2.66800005		1.54037090		2.05472822		 0.00000060		 0.00000174		-0.02292082
O		2.63598405		0.00000000		14.48247416		 0.00114180		-0.00000064		 0.01164188
O		-1.31799202		2.28282889		14.48247416		-0.00057040		 0.00098887		 0.01163800
O		1.35000803		2.33828327		14.48247416		-0.00057061		-0.00099081		 0.01164133
O		2.70001605		0.00000000		7.17547408		-0.00114286		-0.00000019		 0.01163994
O		-1.35000803		2.33828327		7.17547408		 0.00057258		-0.00098857		 0.01163794
O		1.31799202		2.28282889		7.17547408		 0.00057313		 0.00098823		 0.01163744
O		3.55733305		0.00000000		4.17814304		 0.00564643		 0.00000020		-0.01731761
O		-1.77866706		3.08074126		4.17814304		-0.00282726		 0.00489663		-0.01730678
O		0.88933299		1.54036983		4.17814304		-0.00282630		-0.00489432		-0.01731451
O		1.77866706		0.00000000		11.48514312		-0.00565593		-0.00000071		-0.01729576
O		-0.88933299		1.54036983		11.48514312		 0.00283197		-0.00490597		-0.01727760
O		1.77866706		3.08074126		11.48514312		 0.00282817		 0.00489931		-0.01728411
O		0.00000000		0.00000000		2.10441599		 0.00000907		-0.00000387		 0.04228535
O		0.00000000		0.00000000		9.41141607		-0.00000260		 0.00000770		 0.04226546
