# total energy = -18278.4992233 eV

CRYSTAL
PRIMVEC
		5.40933275		0.07394095		-0.00815874
		-2.64090384		4.71948932		0.00787594
		-0.05060662		0.02266733		12.96363616
PRIMECORD
   28 1
Mg		1.95855002		0.25837499		2.98862482		-0.00002035		-0.00057571		 0.00004236
Mg		-0.97156716		1.71060317		3.07386582		 0.00011165		-0.00014711		-0.00020329
Mg		1.53240852		3.18589675		3.16401701		-0.00020811		 0.00035374		 0.00005248
Mg		3.41669156		0.07028633		9.54626853		 0.00023047		-0.00041493		-0.00008567
Mg		-1.90989371		2.90531545		9.47567111		-0.00001863		 0.00018883		 0.00013325
Mg		0.74617025		1.88394847		9.65204032		 0.00039270		 0.00014564		-0.00035629
Si		0.07341162		3.18268607		0.17104815		 0.00035843		 0.00028574		-0.00046294
Si		2.76343975		1.58704596		6.62315271		-0.00017163		-0.00029781		-0.00004501
Si		0.02308567		3.14585540		6.65259463		-0.00010876		-0.00043947		-0.00034872
Si		2.79417991		1.59071979		0.14198990		 0.00010577		 0.00037543		-0.00005062
O		0.03780663		3.20347620		1.79125681		-0.00019834		-0.00015901		-0.00064141
O		2.80109430		1.56252544		8.23941167		-0.00026275		-0.00032055		-0.00020635
O		-0.01331919		3.16774474		8.27287639		 0.00006132		-0.00003450		-0.00052097
O		2.83311884		1.57182075		1.75866666		 0.00042593		 0.00072737		-0.00021560
O		2.73315795		0.04312182		12.54201745		 0.00016775		 0.00044879		 0.00048369
O		-1.35048987		2.42273401		12.60990471		 0.00009961		 0.00050298		 0.00078333
O		1.33781847		2.33836651		12.62942753		 0.00001875		-0.00010698		-0.00068217
O		2.65586652		0.00660383		6.11943964		-0.00033385		-0.00036459		 0.00041629
O		-1.29167754		2.30836805		6.06769164		-0.00027732		-0.00039380		 0.00034666
O		1.43144873		2.44034921		6.14767562		 0.00011592		 0.00008928		-0.00047867
O		3.65077975		0.18560316		3.87111813		-0.00008333		-0.00058060		 0.00003981
O		-1.95875866		3.51829327		3.53313428		-0.00027799		 0.00009439		 0.00054824
O		0.80646651		1.57793901		3.79736821		 0.00011143		 0.00038106		 0.00036653
O		1.35793786		0.02013593		10.00720076		-0.00056721		 0.00015055		 0.00020358
O		-1.00214938		1.47659822		10.36269095		-0.00041628		 0.00041415		 0.00016031
O		1.77995357		3.31579100		10.27729948		 0.00013232		 0.00015471		 0.00026994
O		0.21326018		-0.51614542		2.36522153		 0.00001784		-0.00033261		 0.00006414
O		0.52994005		0.08621589		8.84671998		 0.00059468		-0.00014500		 0.00038712
