# total energy = -18274.0575848 eV

CRYSTAL
PRIMVEC
		5.33600010		0.00000000		0.00000000
		-2.66800005		4.62110949		0.00000000
		0.00000000		0.00000000		14.61400229
PRIMECORD
   28 1
Mg		1.77155203		0.00000000		3.19754310		 0.00637592		-0.00000875		 0.00394950
Mg		-0.88577602		1.53420888		3.19754310		-0.00319638		 0.00553797		 0.00394996
Mg		1.78222403		3.08690220		3.19754310		-0.00318080		-0.00553057		 0.00395037
Mg		3.56444807		0.00000000		10.50454425		-0.00641624		 0.00001598		 0.00397043
Mg		-1.78222403		3.08690220		10.50454425		 0.00321904		-0.00553684		 0.00396823
Mg		0.88577602		1.53420888		10.50454425		 0.00319032		 0.00551726		 0.00396562
Si		0.00000000		3.08074126		0.42672900		-0.00000686		 0.00000655		 0.01389127
Si		2.66800005		1.54036983		7.73372908		 0.00000078		-0.00000258		 0.01389121
Si		0.00000000		3.08074126		7.73372908		-0.00000478		 0.00000122		 0.01388541
Si		2.66800005		1.54037090		0.42672900		 0.00000437		-0.00000661		 0.01389229
O		0.00000000		3.08074126		2.05472822		 0.00000066		-0.00000077		-0.01081594
O		2.66800005		1.54036983		9.36172830		 0.00000043		-0.00000018		-0.01081784
O		0.00000000		3.08074126		9.36172830		 0.00000020		 0.00000035		-0.01081154
O		2.66800005		1.54037090		2.05472822		-0.00000129		 0.00000034		-0.01081482
O		2.63598405		0.00000000		14.48247416		 0.00145467		-0.00000050		 0.00203986
O		-1.31799202		2.28282889		14.48247416		-0.00072617		 0.00126065		 0.00203873
O		1.35000803		2.33828327		14.48247416		-0.00072542		-0.00126047		 0.00203504
O		2.70001605		0.00000000		7.17547408		-0.00145472		 0.00000134		 0.00204027
O		-1.35000803		2.33828327		7.17547408		 0.00073072		-0.00125797		 0.00204090
O		1.31799202		2.28282889		7.17547408		 0.00072860		 0.00125800		 0.00203781
O		3.55733305		0.00000000		4.17814304		 0.00601228		 0.00000023		-0.01798007
O		-1.77866706		3.08074126		4.17814304		-0.00300421		 0.00520238		-0.01798818
O		0.88933299		1.54036983		4.17814304		-0.00300655		-0.00520760		-0.01798230
O		1.77866706		0.00000000		11.48514312		-0.00600657		-0.00000066		-0.01800760
O		-0.88933299		1.54036983		11.48514312		 0.00300110		-0.00520141		-0.01799959
O		1.77866706		3.08074126		11.48514312		 0.00300580		 0.00520758		-0.01798745
O		0.00000000		0.00000000		2.10441599		-0.00000007		 0.00000553		 0.02983407
O		0.00000000		0.00000000		9.41141607		 0.00000514		-0.00000045		 0.02982436
