# total energy = -24709.5536503 eV

CRYSTAL
PRIMVEC
		9.68100001		0.00000000		0.00000000
		0.00000000		8.73899998		-1.04868464
		1.61441324		-0.59341626		4.94515161
PRIMECORD
   40 1
Si		2.35750744		3.46371271		0.56401603		-0.00005060		 0.00006688		 0.00026609
Si		8.93790581		4.68187004		3.33245094		 0.00005060		-0.00006688		-0.00026609
Si		3.29020015		7.77505797		0.52429973		 0.00004910		 0.00002277		 0.00014362
Si		8.00521310		0.37052382		3.37216724		-0.00004910		-0.00002277		-0.00014362
Si		8.13069919		3.40555798		1.04864011		-0.00003815		 0.00013752		 0.00007170
Si		3.16471309		4.74002478		2.84782589		 0.00003815		-0.00013752		-0.00007170
Si		7.19800744		7.83321271		0.03967564		 0.00009275		 0.00022176		-0.00000528
Si		4.09740580		0.31236908		3.85679133		-0.00009275		-0.00022176		 0.00000528
O		4.03384133		3.61103817		0.05406935		-0.00001627		 0.00017120		 0.00023176
O		7.26157192		4.53454458		3.84239665		 0.00001627		-0.00017120		-0.00023176
O		1.61386530		7.80251329		1.01327348		 0.00003137		 0.00040975		-0.00008897
O		9.68154698		0.34307044		2.88319445		-0.00003137		-0.00040975		 0.00008897
O		8.60171275		2.09039703		0.52410804		-0.00017891		 0.00046011		-0.00014367
O		2.69369856		6.05518572		3.37235796		 0.00017891		-0.00046011		 0.00014367
O		6.72699291		6.35189482		0.89978506		-0.00030820		 0.00024783		-0.00007845
O		4.56842034		1.79368794		2.99668191		 0.00030820		-0.00024783		 0.00007845
O		2.98584210		3.71836367		4.18403623		 0.00019621		 0.00004269		-0.00021831
O		8.30957115		4.42721908		-0.28756926		-0.00019621		-0.00004269		 0.00021831
O		4.27627680		8.32523114		1.68163811		-0.00031630		 0.00029833		 0.00011092
O		7.01913548		-0.17964838		2.21482886		 0.00031630		-0.00029833		-0.00011092
O		9.11677680		3.95573115		2.20597752		-0.00013752		 0.00002516		-0.00000641
O		2.17863644		4.18985161		1.69048944		 0.00013752		-0.00002516		 0.00000641
O		7.82634210		8.08786367		3.65969585		 0.00032457		 0.00013513		-0.00058638
O		3.46907115		0.05771909		0.23677112		-0.00032457		-0.00013513		 0.00058638
O		1.88649291		1.98239483		1.42412544		 0.00004675		 0.00005459		 0.00037853
O		9.40892034		6.16318793		2.47234153		-0.00004675		-0.00005459		-0.00037853
O		3.76121275		6.45989702		-0.00023234		-0.00021400		 0.00018071		-0.00023096
O		7.53419856		1.68568573		3.89669834		 0.00021400		-0.00018071		 0.00023096
O		6.45436530		3.43301330		1.53761290		-0.00011939		-0.00031158		 0.00004447
O		4.84104795		4.71257043		2.35885407		 0.00011939		 0.00031158		-0.00004447
O		8.87434133		7.98053816		-0.47027103		 0.00019585		-0.00017503		 0.00013544
O		2.42107095		0.16504362		4.36673800		-0.00019585		 0.00017503		-0.00013544
Mg		0.40360283		0.64689507		1.14085745		-0.00014259		 0.00017353		 0.00058482
Mg		1.21081042		7.49868769		2.75560952		 0.00014259		-0.00017353		-0.00058482
Mg		5.24410283		5.01639506		0.61651706		 0.00038777		 0.00013160		 0.00074484
Mg		6.05131042		3.12918770		3.27994991		-0.00038777		-0.00013160		-0.00074484
Mg		0.32288265		5.91122732		0.26544043		 0.00020859		-0.00019534		 0.00006752
Mg		1.29152963		2.23435641		3.63102653		-0.00020859		 0.00019534		-0.00006752
Mg		5.32482398		1.48238473		1.28429501		 0.00019116		-0.00003181		-0.00021692
Mg		5.97058927		6.66319802		2.61217195		-0.00019116		 0.00003181		 0.00021692
