# total energy = -24715.3965377 eV

CRYSTAL
PRIMVEC
		9.68100001		0.00000000		0.00000000
		0.00000000		8.73899998		-0.34956155
		1.61441324		-0.19780219		4.94515161
PRIMECORD
   40 1
Si		2.35750744		3.54323148		0.85065495		-0.00050027		-0.00035652		-0.00036000
Si		8.93790581		4.99796437		3.74493221		 0.00050027		 0.00035652		 0.00036000
Si		3.29020015		7.89334624		1.16049923		-0.00048640		 0.00038557		 0.00035163
Si		8.00521310		0.64784768		3.43508697		 0.00048640		-0.00038557		-0.00035163
Si		8.13069919		3.52384625		1.33527903		-0.00011090		-0.00010810		 0.00027232
Si		3.16471309		5.01734864		3.26030716		 0.00011090		 0.00010810		-0.00027232
Si		7.19800744		7.91273147		0.67587514		 0.00027479		-0.00057259		-0.00072132
Si		4.09740580		0.62846341		3.91971202		-0.00027479		 0.00057259		 0.00072132
O		4.03384133		3.65059861		0.34769892		-0.00019259		-0.00046738		-0.00010659
O		7.26157192		4.89059531		4.24788727		 0.00019259		 0.00046738		 0.00010659
O		1.61386530		7.96075794		1.65646363		-0.00006868		-0.00003931		-0.00043992
O		9.68154698		0.58043694		2.93912256		 0.00006868		 0.00003931		 0.00043992
O		8.60171275		2.15329933		0.69888785		-0.00000955		 0.00061480		 0.00022722
O		2.69369856		6.38789459		3.89669931		 0.00000955		-0.00061480		-0.00022722
O		6.72699291		6.48679762		1.42412544		-0.00013998		-0.00017416		 0.00004393
O		4.56842034		2.05439630		3.17146172		 0.00013998		 0.00017416		-0.00004393
O		2.98584210		4.09419462		4.52660519		-0.00008337		 0.00002310		 0.00027391
O		8.30957115		4.44700027		0.06898197		 0.00008337		-0.00002310		-0.00027391
O		4.27627680		8.54281742		2.37376571		 0.00056200		 0.00014349		-0.00040184
O		7.01913548		-0.00162254		2.22182048		-0.00056200		-0.00014349		 0.00040184
O		9.11677680		4.17331743		2.54854552		 0.00042778		-0.00036396		 0.00010938
O		2.17863644		4.36787745		2.04703971		-0.00042778		 0.00036396		-0.00010938
O		7.82634210		8.46369461		4.35182539		-0.00023513		-0.00083812		-0.00017871
O		3.46907115		0.07750028		0.24376177		 0.00023513		 0.00083812		 0.00017871
O		1.88649291		2.11729763		1.59890525		-0.00048089		 0.00003795		 0.00027689
O		9.40892034		6.42389629		2.99668191		 0.00048089		-0.00003795		-0.00027689
O		3.76121275		6.52279932		0.52410804		 0.00081450		-0.00005561		-0.00016821
O		7.53419856		2.01839460		4.07147815		-0.00081450		 0.00005561		 0.00016821
O		6.45436530		3.59125795		1.83124441		-0.00072867		-0.00009303		 0.00005688
O		4.84104795		4.94993693		2.76434275		 0.00072867		 0.00009303		-0.00005688
O		8.87434133		8.02009860		0.17291912		 0.00023591		-0.00075097		-0.00063290
O		2.42107095		0.52109531		4.42266707		-0.00023591		 0.00075097		 0.00063290
Mg		0.40360283		0.74579810		1.20447711		 0.00034255		-0.00002425		 0.00047939
Mg		1.21081042		7.79539678		3.39111006		-0.00034255		 0.00002425		-0.00047939
Mg		5.24410283		5.11529809		1.02969730		 0.00028978		 0.00025094		 0.00058530
Mg		6.05131042		3.42589679		3.56588986		-0.00028978		-0.00025094		-0.00058530
Mg		0.32288265		5.99034916		0.74783305		-0.00050615		 0.00015293		 0.00067145
Mg		1.29152963		2.55084476		3.84775411		 0.00050615		-0.00015293		-0.00067145
Mg		5.32482398		1.60106798		1.41712802		-0.00034414		 0.00035798		 0.00015606
Mg		5.97058927		6.94012593		3.17845915		 0.00034414		-0.00035798		-0.00015606
