# total energy = -24713.2080508 eV

CRYSTAL
PRIMVEC
		9.68100001		0.00000000		0.00000000
		0.00000000		8.73899998		-0.69912310
		1.61441324		-0.39561407		4.94515161
PRIMECORD
   40 1
Si		2.35750744		3.50347161		0.70733452		 0.00024231		 0.00022335		-0.00001716
Si		8.93790581		4.83991721		3.53869206		-0.00024231		-0.00022335		 0.00001716
Si		3.29020015		7.83420210		0.84239996		 0.00020332		 0.00022167		 0.00026466
Si		8.00521310		0.50918575		3.40362662		-0.00020332		-0.00022167		-0.00026466
Si		8.13069919		3.46470211		1.19195957		 0.00028044		-0.00021922		-0.00003338
Si		3.16471309		4.87868671		3.05406701		-0.00028044		 0.00021922		 0.00003338
Si		7.19800744		7.87297160		0.35777491		 0.00017549		 0.00002056		-0.00012016
Si		4.09740580		0.47041625		3.88825167		-0.00017549		-0.00002056		 0.00012016
O		4.03384133		3.63081936		0.20088365		 0.00011429		 0.00060697		-0.00033322
O		7.26157192		4.71257043		4.04514196		-0.00011429		-0.00060697		 0.00033322
O		1.61386530		7.88163513		1.33486759		 0.00021685		 0.00005134		 0.00039413
O		9.68154698		0.46175272		2.91115899		-0.00021685		-0.00005134		-0.00039413
O		8.60171275		2.12184770		0.61149843		 0.00018729		-0.00038961		 0.00001945
O		2.69369856		6.22154112		3.63452912		-0.00018729		 0.00038961		-0.00001945
O		6.72699291		6.41934719		1.16195525		-0.00004302		-0.00017535		-0.00040001
O		4.56842034		1.92404163		3.08407230		 0.00004302		 0.00017535		 0.00040001
O		2.98584210		3.90627866		4.35532120		 0.00026021		-0.00059675		-0.00055086
O		8.30957115		4.43710919		-0.10929365		-0.00026021		 0.00059675		 0.00055086
O		4.27627680		8.43402428		2.02770191		 0.00031992		-0.00045216		 0.00012541
O		7.01913548		-0.09063546		2.21832467		-0.00031992		 0.00045216		-0.00012541
O		9.11677680		4.06452429		2.37726152		-0.00013290		-0.00042936		-0.00002970
O		2.17863644		4.27886453		1.86876506		 0.00013290		 0.00042936		 0.00002970
O		7.82634210		8.27577865		4.00576062		 0.00014085		-0.00042204		-0.00042520
O		3.46907115		0.06760920		0.24026596		-0.00014085		 0.00042204		 0.00042520
O		1.88649291		2.04984623		1.51151486		-0.00013666		 0.00034297		-0.00006982
O		9.40892034		6.29354162		2.73451172		 0.00013666		-0.00034297		 0.00006982
O		3.76121275		6.49134769		0.26193785		-0.00025226		 0.00038526		 0.00022282
O		7.53419856		1.85204113		3.98408776		 0.00025226		-0.00038526		-0.00022282
O		6.45436530		3.51213514		1.68442817		 0.00041220		-0.00025747		 0.00003089
O		4.84104795		4.83125368		2.56159938		-0.00041220		 0.00025747		-0.00003089
O		8.87434133		8.00031935		-0.14867596		-0.00009222		 0.00045180		 0.00017903
O		2.42107095		0.34307044		4.39470157		 0.00009222		-0.00045180		-0.00017903
Mg		0.40360283		0.69634562		1.17266728		-0.00044433		-0.00033100		-0.00077494
Mg		1.21081042		7.64704223		3.07336027		 0.00044433		 0.00033100		 0.00077494
Mg		5.24410283		5.06584561		0.82310670		-0.00017419		-0.00036884		-0.00094053
Mg		6.05131042		3.27754224		3.42291988		 0.00017419		 0.00036884		 0.00094053
Mg		0.32288265		5.95078775		0.50663674		 0.00054734		-0.00011190		-0.00059499
Mg		1.29152963		2.39260107		3.73938984		-0.00054734		 0.00011190		 0.00059499
Mg		5.32482398		1.54172733		1.35071055		-0.00031451		 0.00025560		-0.00044239
Mg		5.97058927		6.80166246		2.89531507		 0.00031451		-0.00025560		 0.00044239
