# total energy = -24715.3965377 eV

CRYSTAL
PRIMVEC
		9.68100001		0.00000000		0.00000000
		0.00000000		8.73899998		0.34956155
		1.61441324		0.19780219		4.94515161
PRIMECORD
   40 1
Si		2.35750744		3.62274928		1.13729387		 0.00048642		 0.00038561		-0.00035167
Si		8.93790581		5.31405677		4.15741348		-0.00048642		-0.00038561		 0.00035167
Si		3.29020015		8.01163354		1.79669776		 0.00050031		-0.00035654		 0.00036000
Si		8.00521310		0.92517154		3.49800766		-0.00050031		 0.00035654		-0.00036000
Si		8.13069919		3.64213354		1.62191795		-0.00027489		-0.00057251		 0.00072142
Si		3.16471309		5.29467153		3.67278843		 0.00027489		 0.00057251		-0.00072142
Si		7.19800744		7.99224927		1.31207368		 0.00011082		-0.00010816		-0.00027228
Si		4.09740580		0.94455678		3.98263271		-0.00011082		 0.00010816		 0.00027228
O		4.03384133		3.69016099		0.64133043		 0.00006860		-0.00003932		 0.00043998
O		7.26157192		5.24664603		4.65337692		-0.00006860		 0.00003932		-0.00043998
O		1.61386530		8.11900163		2.29965378		 0.00019258		-0.00046738		 0.00010658
O		9.68154698		0.81780441		2.99505260		-0.00019258		 0.00046738		-0.00010658
O		8.60171275		2.21620066		0.87366765		 0.00014002		-0.00017421		-0.00004396
O		2.69369856		6.72060539		4.42103873		-0.00014002		 0.00017421		 0.00004396
O		6.72699291		6.62170235		1.94846486		 0.00000960		 0.00061486		-0.00022726
O		4.56842034		2.31510369		3.34624152		-0.00000960		-0.00061486		 0.00022726
O		2.98584210		4.47002556		4.86917416		-0.00056200		 0.00014348		 0.00040183
O		8.30957115		4.46677952		0.42553320		 0.00056200		-0.00014348		-0.00040183
O		4.27627680		8.76040370		3.06589525		 0.00008335		 0.00002308		-0.00027393
O		7.01913548		0.17640331		2.22881210		-0.00008335		-0.00002308		 0.00027393
O		9.11677680		4.39090275		2.89111545		 0.00023512		-0.00083811		 0.00017872
O		2.17863644		4.54590330		2.40359190		-0.00023512		 0.00083811		-0.00017872
O		7.82634210		8.83952555		5.04395396		-0.00042777		-0.00036397		-0.00010938
O		3.46907115		0.09727953		0.25075339		 0.00042777		 0.00036397		 0.00010938
O		1.88649291		2.25220236		1.77368505		-0.00081447		-0.00005561		 0.00016821
O		9.40892034		6.68460368		3.52102230		 0.00081447		 0.00005561		-0.00016821
O		3.76121275		6.58570065		1.04844843		 0.00048087		 0.00003797		-0.00027686
O		7.53419856		2.35110540		4.24625796		-0.00048087		-0.00003797		 0.00027686
O		6.45436530		3.74950164		2.12487398		-0.00023583		-0.00075098		 0.00063286
O		4.84104795		5.18730440		3.16983337		 0.00023583		 0.00075098		-0.00063286
O		8.87434133		8.05966098		0.81611024		 0.00072870		-0.00009303		-0.00005687
O		2.42107095		0.87714507		4.47859712		-0.00072870		 0.00009303		 0.00005687
Mg		0.40360283		0.84470017		1.26809676		-0.00028978		 0.00025094		-0.00058528
Mg		1.21081042		8.09210588		4.02660962		 0.00028978		-0.00025094		 0.00058528
Mg		5.24410283		5.21420112		1.44287657		-0.00034255		-0.00002425		-0.00047936
Mg		6.05131042		3.72260589		3.85182981		 0.00034255		 0.00002425		 0.00047936
Mg		0.32288265		6.06947101		1.23022566		 0.00034414		 0.00035797		-0.00015605
Mg		1.29152963		2.86733504		4.06448072		-0.00034414		-0.00035797		 0.00015605
Mg		5.32482398		1.71975220		1.54996005		 0.00050616		 0.00015293		-0.00067144
Mg		5.97058927		7.21705384		3.74474634		-0.00050616		-0.00015293		 0.00067144
