# total energy = -24706.3575088 eV

CRYSTAL
PRIMVEC
		9.68100001		0.00000000		0.00000000
		0.00000000		8.73899998		-1.39823651
		1.61441324		-0.79121845		4.94515161
PRIMECORD
   40 1
Si		2.35750744		3.42395382		0.42069560		-0.00030588		 0.00012388		-0.00000688
Si		8.93790581		4.52382288		3.12621079		 0.00030588		-0.00012388		 0.00000688
Si		3.29020015		7.71591384		0.20620046		-0.00058980		 0.00046244		 0.00010365
Si		8.00521310		0.23186189		3.34070593		 0.00058980		-0.00046244		-0.00010365
Si		8.13069919		3.34641385		0.90531968		-0.00046220		 0.00045639		 0.00053751
Si		3.16471309		4.60136284		2.64158574		 0.00046220		-0.00045639		-0.00053751
Si		7.19800744		7.79345381		-0.27842362		-0.00033610		-0.00018758		-0.00015230
Si		4.09740580		0.15432192		3.82533098		 0.00033610		 0.00018758		 0.00015230
O		4.03384133		3.59125795		-0.09274592		 0.00001853		 0.00023242		 0.00048509
O		7.26157192		4.35651874		3.63965327		-0.00001853		-0.00023242		-0.00048509
O		1.61386530		7.72339144		0.69167841		-0.00014398		 0.00020165		-0.00038288
O		9.68154698		0.22438622		2.85522895		 0.00014398		-0.00020165		 0.00038288
O		8.60171275		2.05894637		0.43671766		 0.00025611		 0.00020532		 0.00015873
O		2.69369856		5.88883129		3.11018776		-0.00025611		-0.00020532		-0.00015873
O		6.72699291		6.28444342		0.63761486		-0.00049670		 0.00000956		-0.00012484
O		4.56842034		1.66333424		2.90929153		 0.00049670		-0.00000956		 0.00012484
O		2.98584210		3.53044772		4.01275224		 0.00023864		 0.00003573		 0.00027551
O		8.30957115		4.41732897		-0.46584488		-0.00023864		-0.00003573		-0.00027551
O		4.27627680		8.21643703		1.33557333		-0.00012328		 0.00003927		 0.00018845
O		7.01913548		-0.26866130		2.21133402		 0.00012328		-0.00003927		-0.00018845
O		9.11677680		3.84693704		2.03469256		-0.00011955		-0.00008482		 0.00005847
O		2.17863644		4.10083966		1.51221383		 0.00011955		 0.00008482		-0.00005847
O		7.82634210		7.89994771		3.31363204		-0.00025056		-0.00016028		 0.00013730
O		3.46907115		0.04782898		0.23327531		 0.00025056		 0.00016028		-0.00013730
O		1.88649291		1.91494343		1.33673505		-0.00054680		 0.00016468		-0.00009708
O		9.40892034		6.03283423		2.21017230		 0.00054680		-0.00016468		 0.00009708
O		3.76121275		6.42844636		-0.26240157		-0.00036561		-0.00029514		 0.00017799
O		7.53419856		1.51933130		3.80930796		 0.00036561		 0.00029514		-0.00017799
O		6.45436530		3.35389145		1.39079763		-0.00019933		-0.00016198		 0.00043505
O		4.84104795		4.59388621		2.15610876		 0.00019933		 0.00016198		-0.00043505
O		8.87434133		7.96075794		-0.79186611		-0.00013358		 0.00042574		 0.00016319
O		2.42107095		-0.01298125		4.33877346		 0.00013358		-0.00042574		-0.00016319
Mg		0.40360283		0.59744259		1.10904665		-0.00054510		-0.00016339		 0.00005746
Mg		1.21081042		7.35033411		2.43785974		 0.00054510		 0.00016339		-0.00005746
Mg		5.24410283		4.96694258		0.40992742		-0.00006734		-0.00059666		-0.00021690
Mg		6.05131042		2.98083412		3.13697993		 0.00006734		 0.00059666		 0.00021690
Mg		0.32288265		5.87166591		0.02424413		 0.00020887		 0.00010215		 0.00003364
Mg		1.29152963		2.07611078		3.52266323		-0.00020887		-0.00010215		-0.00003364
Mg		5.32482398		1.42304311		1.21787755		-0.00031096		 0.00015386		-0.00004819
Mg		5.97058927		6.52473358		2.32902787		 0.00031096		-0.00015386		 0.00004819
