# total energy = -49443.7658325 eV	

CRYSTAL	
PRIMVEC	
		14.02399591		-1.12191686		0.00000000	
		-0.40872692		5.10900214		0.00000000	
		0.00000000		0.00000000		8.73299971	
PRIMCOORD
   70 1	
Mg		2.29353459		1.48103718		0.04628496		-0.00008657		-0.00040416		 0.00031121	
Mg		11.32174425		2.50604248		0.04628496		 0.00008657		 0.00040416		 0.00031121	
Mg		9.36921358		0.12409530		4.41278481		-0.00039890		 0.00007109		 0.00013247	
Mg		4.24606525		3.86298576		4.41278481		 0.00039890		-0.00007109		 0.00013247	
Mg		2.14765233		4.07096209		1.53002194		 0.00004315		 0.00014604		 0.00031099	
Mg		11.46762791		-0.08388103		1.53002194		-0.00004315		-0.00014604		 0.00031099	
Mg		9.22978750		2.63329763		5.89652039		-0.00015972		 0.00031480		 0.00022750	
Mg		4.38549133		1.35378343		5.89652039		 0.00015972		-0.00031480		 0.00022750	
Mg		4.40231762		1.40472235		2.83123869		-0.00009739		-0.00045524		 0.00018222	
Mg		9.21296121		2.58235731		2.83123869		 0.00009739		 0.00045524		 0.00018222	
Mg		11.49287438		-0.13818662		7.19773854		 0.00012436		-0.00026123		 0.00000375	
Mg		2.12240586		4.12526627		7.19773854		-0.00012436		 0.00026123		 0.00000375	
Mg		-0.20436065		2.55449966		7.23616326		0.00000000		0.00000000		 0.00064646	
Mg		7.01199936		-0.56095984		2.86966341		0.00000000		0.00000000		-0.00004957	
Mg		-0.20436065		2.55449966		1.63307031		0.00000000		0.00000000		 0.00061786	
Mg		7.01199936		-0.56095984		5.99957157		0.00000000		0.00000000		-0.00012784	
Mg		0.00000000		0.00000000		5.78561318		0.00000000		0.00000000		 0.00058806	
Mg		6.80764012		1.99353983		1.41911333		0.00000000		0.00000000		 0.00024891	
Mg		0.00000000		0.00000000		3.01725080		0.00000000		0.00000000		 0.00001099	
Mg		6.80764012		1.99353983		7.38375065		0.00000000		0.00000000		-0.00013297	
Si		0.00000000		0.00000000		0.06724467		0.00000000		0.00000000		 0.00016253	
Si		6.80764012		1.99353983		4.43374452		0.00000000		0.00000000		 0.00008886	
Si		5.27567528		-0.35047785		0.04453762		-0.00008111		 0.00026158		-0.00010144	
Si		8.33960356		4.33755751		0.04453762		 0.00008111		-0.00026158		-0.00010144	
Si		12.09484197		1.49898757		4.41103747		-0.00024070		 0.00011931		-0.00018259	
Si		1.52043968		2.48809209		4.41103747		 0.00024070		-0.00011931		-0.00018259	
O		5.53446672		3.15532627		8.67710856		-0.00002721		 0.00048606		-0.00015317	
O		8.08081352		0.83175338		8.67710856		 0.00002721		-0.00048606		-0.00015317	
O		12.51278818		3.01534729		4.31060871		-0.00035738		 0.00021779		-0.00000771	
O		1.10249206		0.97173237		4.31060871		 0.00035738		-0.00021779		-0.00000771	
O		0.81479484		3.45320227		0.04366535		 0.00028284		-0.00003648		 0.00024119	
O		12.80048540		0.53387879		0.04366535		-0.00028284		 0.00003648		 0.00024119	
O		7.78028274		3.47364565		4.41016520		-0.00004333		-0.00013815		 0.00028909	
O		5.83499750		0.51343401		4.41016520		 0.00004333		 0.00013815		 0.00028909	
O		3.48999642		-0.16752148		3.01375752		 0.00004456		-0.00035757		 0.00022615	
O		10.12528242		4.15460114		3.01375752		-0.00004456		 0.00035757		 0.00022615	
O		10.31561928		1.60122276		7.38025737		-0.00008869		-0.00010361		-0.00011641	
O		3.29965955		2.38585690		7.38025737		 0.00008869		 0.00010361		-0.00011641	
O		3.36966030		2.32949445		1.41474637		-0.00006828		-0.00048079		-0.00058968	
O		10.24561994		1.65758661		1.41474637		 0.00006828		 0.00048079		-0.00058968	
O		10.18710919		4.20041761		5.78124623		-0.00043585		 0.00026535		-0.00032491	
O		3.42817105		-0.21333795		5.78124623		 0.00043585		-0.00026535		-0.00032491	
O		1.00696769		0.65043040		1.33702185		-0.00004874		-0.00021612		 0.00007030	
O		12.60831115		3.33665066		1.33702185		 0.00004874		 0.00021612		 0.00007030	
O		7.93231869		1.17257863		5.70352171		 0.00003177		 0.00003591		-0.00005985	
O		5.68296015		2.81450244		5.70352171		-0.00003177		-0.00003591		-0.00005985	
O		5.76307355		2.82332217		3.16047264		-0.00036974		-0.00002658		-0.00033202	
O		7.85220528		1.16375749		3.16047264		 0.00036974		 0.00002658		-0.00033202	
O		12.69087815		3.31481588		7.52697249		 0.00037557		 0.00025679		 0.00006591	
O		0.92440350		0.67226378		7.52697249		-0.00037557		-0.00025679		 0.00006591	
O		5.75041444		0.31664097		1.39640628		-0.00012447		 0.00009318		-0.00005012	
O		7.86486580		3.67043869		1.39640628		 0.00012447		-0.00009318		-0.00005012	
O		12.68312202		0.74682704		5.76290754		-0.00012112		 0.00019140		-0.00017803	
O		0.93215822		3.24025262		5.76290754		 0.00012112		-0.00019140		-0.00017803	
O		0.96676045		3.39992652		3.03821051		 0.00006906		-0.00030936		-0.00037851	
O		12.64851979		0.58715454		3.03821051		-0.00006906		 0.00030936		-0.00037851	
O		7.92562615		3.50313527		7.40471036		-0.00046141		-0.00013421		-0.00005594	
O		5.68965268		0.48394438		7.40471036		 0.00046141		 0.00013421		-0.00005594	
O		3.64147243		-0.26695136		0.06113036		-0.00013005		-0.00016650		 0.00007744	
O		9.97380641		4.25403242		0.06113036		 0.00013005		 0.00016650		 0.00007744	
O		10.45303634		1.67754180		4.42763162		-0.00021738		-0.00028335		 0.00012959	
O		3.16224250		2.30953785		4.42763162		 0.00021738		 0.00028335		 0.00012959	
H		3.96196825		2.72882341		0.87329997		 0.00031946		-0.00040840		-0.00009247	
H		9.65331199		1.25825624		0.87329997		-0.00031946		 0.00040840		-0.00009247	
H		10.85135234		3.70056422		5.23979982		-0.00062379		 0.00014762		-0.00026892	
H		2.76392790		0.28651544		5.23979982		 0.00062379		-0.00014762		-0.00026892	
H		3.71291100		0.61670185		3.92985057		 0.00022691		-0.00050921		-0.00014931	
H		9.90236924		3.37037921		3.92985057		-0.00022691		 0.00050921		-0.00014931	
H		10.66768831		0.77100147		8.29635042		 0.00005710		 0.00032348		-0.00025339	
H		2.94759052		3.21607959		8.29635042		-0.00005710		-0.00032348		-0.00025339	
