# total energy = -49438.731031 eV	

CRYSTAL	
PRIMVEC	
		14.02400194		-1.68287684		0.00000000	
		-0.61307876		5.10899912		0.00000000	
		0.00000000		0.00000000		8.73299308	
PRIMCOORD
   70 1	
Mg		2.22652467		1.38393509		0.04628494		-0.00056783		-0.00008020		-0.00010053	
Mg		11.18439427		2.04218577		0.04628494		 0.00056783		 0.00008020		-0.00010053	
Mg		9.33404332		-0.25348734		4.41278430		-0.00022368		 0.00006810		 0.00005675	
Mg		4.07687703		3.67960821		4.41278430		 0.00022368		-0.00006810		 0.00005675	
Mg		1.97684815		3.97139161		1.53002171		-0.00047868		 0.00023631		 0.00001521	
Mg		11.43407221		-0.54527074		1.53002171		 0.00047868		-0.00023631		 0.00001521	
Mg		9.09405205		2.25324702		5.89652107		 0.00014359		 0.00033325		 0.00003681	
Mg		4.31686830		1.17287243		5.89652107		-0.00014359		-0.00033325		 0.00003681	
Mg		4.33158897		1.22297243		2.83123884		 0.00006243		-0.00023307		 0.00007212	
Mg		9.07933138		2.20314844		2.83123884		-0.00006243		 0.00023307		 0.00007212	
Mg		11.46142311		-0.60041746		7.19773820		 0.00006143		-0.00028094		-0.00015739	
Mg		1.94949725		4.02653833		7.19773820		-0.00006143		 0.00028094		-0.00015739	
Mg		-0.30653938		2.55449956		7.23616421		0.00000000		0.00000000		 0.00045301	
Mg		7.01199956		-0.84143983		2.86966343		0.00000000		0.00000000		 0.00053104	
Mg		-0.30653938		2.55449956		1.63307064		0.00000000		0.00000000		 0.00009951	
Mg		7.01199956		-0.84143983		5.99957142		0.00000000		0.00000000		-0.00028871	
Mg		0.00000000		0.00000000		5.78561321		0.00000000		0.00000000		 0.00035125	
Mg		6.70546018		1.71305973		1.41911243		0.00000000		0.00000000		 0.00064979	
Mg		0.00000000		0.00000000		3.01725150		0.00000000		0.00000000		-0.00010578	
Mg		6.70546018		1.71305973		7.38375086		0.00000000		0.00000000		 0.00005034	
Si		0.00000000		0.00000000		0.06724445		0.00000000		0.00000000		 0.00016513	
Si		6.70546018		1.71305973		4.43374382		0.00000000		0.00000000		-0.00022329	
Si		5.27279377		-0.56173580		0.04453773		-0.00019832		 0.00005227		-0.00008658	
Si		8.13812518		3.98785525		0.04453773		 0.00019832		-0.00005227		-0.00008658	
Si		11.99554247		1.00725006		4.41103850		-0.00029625		 0.00022048		 0.00005575	
Si		1.41537648		2.41886939		4.41103850		 0.00029625		-0.00022048		 0.00005575	
O		5.38961560		2.92235953		8.67710905		 0.00012793		 0.00025814		 0.00013800	
O		8.02130334		0.50376133		8.67710905		-0.00012793		-0.00025814		 0.00013800	
O		12.35109849		2.50190092		4.31060828		 0.00014952		 0.00008246		-0.00008491	
O		1.05982187		0.92421853		4.31060828		-0.00014952		-0.00008246		-0.00008491	
O		0.67315356		3.40927726		0.04366482		 0.00000457		-0.00002771		 0.00009150	
O		12.73776679		0.01684219		0.04366482		-0.00000457		 0.00002771		 0.00009150	
O		7.61538460		3.14924317		4.41016419		 0.00012454		-0.00016652		-0.00024351	
O		5.79553434		0.27687770		4.41016419		-0.00012454		 0.00016652		-0.00024351	
O		3.48549932		-0.30748149		3.01375848		-0.00031140		-0.00004564		-0.00009677	
O		9.92541821		3.73360095		3.01375848		 0.00031140		 0.00004564		-0.00009677	
O		10.21793609		1.18078363		7.38025784		-0.00048758		-0.00021600		-0.00042162	
O		3.19298426		2.24533724		7.38025784		 0.00048758		 0.00021600		-0.00042162	
O		3.26502826		2.18633732		1.41474652		 0.00047666		-0.00014875		 0.00005988	
O		10.14589210		1.23978354		1.41474652		-0.00047666		 0.00014875		 0.00005988	
O		9.98520204		3.77678130		5.78124588		-0.00014701		 0.00015044		-0.00036685	
O		3.42571831		-0.35066043		5.78124588		 0.00014701		-0.00015044		-0.00036685	
O		0.97754035		0.60779757		1.33702160		-0.00007551		-0.00007974		-0.00006869	
O		12.43338000		2.81832329		1.33702160		 0.00007551		 0.00007974		-0.00006869	
O		7.85956665		0.84946544		5.70352238		 0.00032189		 0.00021173		-0.00009299	
O		5.55135229		2.57665543		5.70352238		-0.00032189		-0.00021173		-0.00009299	
O		5.63085267		2.58222052		3.16047223		 0.00005150		-0.00011909		-0.00000947	
O		7.78006627		0.84389893		3.16047223		-0.00005150		 0.00011909		-0.00000947	
O		12.51655843		2.79323516		7.52697160		-0.00014389		-0.00002630		 0.00035683	
O		0.89436193		0.63288429		7.52697160		 0.00014389		 0.00002630		 0.00035683	
O		5.71914703		0.08412336		1.39640712		-0.00015312		-0.00015004		-0.00007411	
O		7.69177333		3.34199750		1.39640712		 0.00015312		 0.00015004		-0.00007411	
O		12.61220888		0.23382871		5.76290649		-0.00027236		-0.00011027		 0.00005052	
O		0.79871147		3.19229074		5.76290649		 0.00027236		 0.00011027		 0.00005052	
O		0.82677425		3.35005701		3.03821101		 0.00016462		-0.00026265		 0.00003593	
O		12.58414610		0.07606245		3.03821101		-0.00016462		 0.00026265		 0.00003593	
O		7.75907286		3.17278748		7.40471037		-0.00032681		-0.00002913		-0.00003247	
O		5.65184749		0.25333338		7.40471037		 0.00032681		 0.00002913		-0.00003247	
O		3.64049151		-0.41268866		0.06113132		-0.00025095		-0.00010603		-0.00011267	
O		9.77042744		3.83880953		0.06113132		 0.00025095		 0.00010603		-0.00011267	
O		10.35183741		1.25132476		4.42763068		-0.00007259		-0.00018554		 0.00005814	
O		3.05908153		2.17479610		4.42763068		 0.00007259		 0.00018554		 0.00005814	
H		3.83935191		2.56053642		0.87329931		 0.00022017		-0.00006831		 0.00033139	
H		9.57156844		0.86558445		0.87329931		-0.00022017		 0.00006831		 0.00033139	
H		10.66742784		3.25179632		5.23980009		-0.00007440		-0.00008661		-0.00010563	
H		2.74349251		0.17432454		5.23980009		 0.00007440		 0.00008661		-0.00010563	
H		3.67612649		0.46524211		3.92984971		 0.00009984		-0.00000701		-0.00006289	
H		9.73479528		2.96087735		3.92984971		-0.00009984		 0.00000701		-0.00006289	
H		10.60229361		0.33906130		8.29635049		-0.00009046		-0.00022553		-0.00008291	
H		2.80862533		3.08705815		8.29635049		 0.00009046		 0.00022553		-0.00008291	
