# total energy = -49440.6396793 eV	

CRYSTAL	
PRIMVEC	
		14.02400496		2.24384704		0.00000000	
		0.81744596		5.10900528		0.00000000	
		0.00000000		0.00000000		8.73299628	
PRIMCOORD
   70 1	
Mg		2.69559327		2.06365018		0.04628553		 0.00371766		 0.00127382		-0.00706518	
Mg		12.14584628		5.28918936		0.04628553		-0.00371766		-0.00127382		-0.00706518	
Mg		9.58023597		2.38958753		4.41278509		 0.00258836		 0.00061527		-0.00531975	
Mg		5.26120358		4.96325343		4.41278509		-0.00258836		-0.00061527		-0.00531975	
Mg		3.17247627		4.66838377		1.53002160		-0.00355472		-0.00781289		-0.00314727	
Mg		11.66896328		2.68445577		1.53002160		 0.00355472		 0.00781289		-0.00314727	
Mg		10.04420334		4.91360051		5.89652115		-0.00444857		-0.00487019		 0.00112939	
Mg		4.79723621		2.43924044		5.89652115		 0.00444857		 0.00487019		 0.00112939	
Mg		4.82669194		2.49522904		2.83123871		-0.00161084		-0.00108786		 0.00169921	
Mg		10.01474762		4.85761050		2.83123871		 0.00161084		 0.00108786		 0.00169921	
Mg		11.68157925		2.63519910		7.19773827		-0.00535848		 0.00332618		-0.00082138	
Mg		3.15986031		4.71764044		7.19773827		 0.00535848		-0.00332618		-0.00082138	
Mg		0.40872014		2.55449980		7.23616421		0.00000000		0.00000000		 0.00424786	
Mg		7.01199964		1.12192068		2.86966465		0.00000000		0.00000000		 0.00602590	
Mg		0.40872014		2.55449980		1.63307117		0.00000000		0.00000000		-0.00536806	
Mg		7.01199964		1.12192068		5.99957073		0.00000000		0.00000000		-0.00388824	
Mg		0.00000000		0.00000000		5.78561341		0.00000000		0.00000000		-0.00915130	
Mg		7.42071978		3.67642048		1.41911243		0.00000000		0.00000000		 0.00680907	
Mg		0.00000000		0.00000000		3.01725144		0.00000000		0.00000000		 0.00647045	
Mg		7.42071978		3.67642048		7.38375100		0.00000000		0.00000000		 0.00496083	
Si		0.00000000		0.00000000		0.06724397		0.00000000		0.00000000		-0.00103910	
Si		7.42071978		3.67642048		4.43374353		0.00000000		0.00000000		 0.00484078	
Si		5.29296435		0.91706708		0.04453864		 0.00017805		-0.00155753		 0.00188385	
Si		9.54847520		6.43577246		0.04453864		-0.00017805		 0.00155753		 0.00188385	
Si		12.69063225		4.44941301		4.41103820		-0.00428922		-0.00007681		-0.00436157	
Si		2.15080730		2.90342653		4.41103820		 0.00428922		 0.00007681		-0.00436157	
O		6.40356858		4.55312583		8.67710852		 0.00327054		 0.00522864		 0.00395454	
O		8.43787097		2.79971370		8.67710852		-0.00327054		-0.00522864		 0.00395454	
O		13.48292581		6.09602756		4.31060896		 0.00349918		 0.00636157		-0.00803422	
O		1.35851374		1.25681339		4.31060896		-0.00349918		-0.00636157		-0.00803422	
O		1.66464730		3.71674101		0.04366519		 0.00019003		 0.00358513		-0.00202238	
O		13.17679225		3.63609994		0.04366519		-0.00019003		-0.00358513		-0.00202238	
O		8.76967248		5.42006422		4.41016475		 0.00055778		-0.00031954		-0.00119967	
O		6.07176849		1.93277532		4.41016475		-0.00055778		 0.00031954		-0.00119967	
O		3.51697186		0.67223664		3.01375766		-0.00132649		-0.00449124		 0.00341182	
O		11.32446769		6.68060432		3.01375766		 0.00132649		 0.00449124		 0.00341182	
O		10.90172413		4.12386054		7.38025722		 0.00292942		 0.00081463		 0.00187310	
O		3.93971542		3.22898041		7.38025722		-0.00292942		-0.00081463		 0.00187310	
O		3.99745375		3.18843548		1.41474662		-0.00342831		-0.00099053		 0.00287035	
O		10.84398580		4.16440406		1.41474662		 0.00342831		 0.00099053		 0.00287035	
O		11.39855579		6.74223977		5.78124618		 0.00515458		-0.00839360		-0.00538036	
O		3.44288519		0.61059976		5.78124618		-0.00515458		 0.00839360		-0.00538036	
O		1.18353483		0.90622783		1.33702129		-0.00605667		-0.00002669		 0.00163058	
O		13.65790472		6.44661171		1.33702129		 0.00605667		 0.00002669		 0.00163058	
O		8.36883182		3.11125553		5.70352227		-0.00033367		 0.00639832		 0.00596632	
O		6.47260631		4.24158401		5.70352227		 0.00033367		-0.00639832		 0.00596632	
O		6.55639889		4.26992627		3.16047243		 0.00116852		 0.00010501		 0.00164052	
O		8.28504066		3.08291469		3.16047243		-0.00116852		-0.00010501		 0.00164052	
O		13.73679180		6.44429956		7.52697199		 0.00943658		-0.00209847		-0.00490689	
O		1.10464776		0.90854139		7.52697199		-0.00943658		 0.00209847		-0.00490689	
O		5.93801623		1.71174947		1.39640709		-0.00172146		-0.00020536		 0.00463386	
O		8.90342333		5.64109148		1.39640709		 0.00172146		 0.00020536		 0.00463386	
O		13.10859956		3.82481539		5.76290665		 0.00058487		-0.00463549		-0.00011509	
O		1.73284000		3.52802557		5.76290665		-0.00058487		 0.00463549		-0.00011509	
O		1.80667955		3.69914285		3.03821130		 0.00087753		 0.00501806		-0.00461543	
O		13.03476142		3.65369810		3.03821130		-0.00087753		-0.00501806		-0.00461543	
O		8.92494702		5.48523181		7.40471086		-0.00151514		-0.00004942		-0.00027013	
O		5.91649253		1.86760773		7.40471086		 0.00151514		 0.00004942		-0.00027013	
O		3.64735958		0.60747240		0.06113127		-0.00022749		 0.00117038		-0.00346529	
O		11.19408139		6.74536714		0.06113127		 0.00022749		-0.00117038		-0.00346529	
O		11.06023113		4.23484641		4.42763083		-0.00613976		-0.00599417		 0.00928206	
O		3.78120842		3.11799455		4.42763083		 0.00613976		 0.00599417		 0.00928206	
H		4.69766338		3.73855160		0.87329963		 0.00476438		-0.00371801		 0.00072230	
H		10.14377617		3.61428794		0.87329963		-0.00476438		 0.00371801		 0.00072230	
H		11.95489539		6.39317244		5.23980061		-0.00193588		 0.00000523		 0.00429545	
H		2.88654417		0.95966852		5.23980061		 0.00193588		-0.00000523		 0.00429545	
H		3.93361834		1.52545695		3.92985045		-0.00004683		-0.00158889		-0.00343197	
H		10.90782121		5.82738258		3.92985045		 0.00004683		 0.00158889		-0.00343197	
H		11.06006070		3.36263752		8.29635001		-0.00169217		-0.00184610		 0.00220914	
H		3.78137885		3.99020344		8.29635001		 0.00169217		 0.00184610		 0.00220914	
