# total energy = -49443.7658325 eV	

CRYSTAL	
PRIMVEC	
		14.02399591		1.12191686		0.00000000	
		0.40872692		5.10900214		0.00000000	
		0.00000000		0.00000000		8.73299971	
PRIMCOORD
   70 1	
Mg		2.56157346		1.86944453		0.04628496		-0.00039890		-0.00007110		 0.00013247	
Mg		11.87114656		4.36147448		0.04628496		 0.00039890		 0.00007110		 0.00013247	
Mg		9.50989460		1.63442232		4.41278481		-0.00008658		 0.00040415		 0.00031120	
Mg		4.92282542		4.59649668		4.41278481		 0.00008658		-0.00040415		 0.00031120	
Mg		2.83086727		4.46924293		1.53002194		-0.00015972		-0.00031480		 0.00022750	
Mg		11.60185134		1.76167748		1.53002194		 0.00015972		 0.00031480		 0.00022750	
Mg		9.77273223		4.15349955		5.89652039		 0.00004315		-0.00014604		 0.00031100	
Mg		4.65998779		2.07742086		5.89652039		-0.00004315		 0.00014604		 0.00031100	
Mg		4.68523426		2.13172644		2.83123869		 0.00012435		 0.00026123		 0.00000374	
Mg		9.74748576		4.09919256		2.83123869		-0.00012435		-0.00026123		 0.00000374	
Mg		11.61867763		1.71073715		7.19773854		-0.00009739		 0.00045524		 0.00018222	
Mg		2.81404239		4.52018326		7.19773854		 0.00009739		-0.00045524		 0.00018222	
Mg		0.20436065		2.55449966		7.23616326		0.00000000		0.00000000		-0.00004955	
Mg		7.01199936		0.56095984		2.86966341		0.00000000		0.00000000		 0.00064646	
Mg		0.20436065		2.55449966		1.63307031		0.00000000		0.00000000		-0.00012785	
Mg		7.01199936		0.56095984		5.99957157		0.00000000		0.00000000		 0.00061786	
Mg		0.00000000		0.00000000		5.78561318		0.00000000		0.00000000		 0.00024891	
Mg		7.21636001		3.11545950		1.41911333		0.00000000		0.00000000		 0.00058806	
Mg		0.00000000		0.00000000		3.01725080		0.00000000		0.00000000		-0.00013297	
Mg		7.21636001		3.11545950		7.38375065		0.00000000		0.00000000		 0.00001101	
Si		0.00000000		0.00000000		0.06724467		0.00000000		0.00000000		 0.00008886	
Si		7.21636001		3.11545950		4.43374452		0.00000000		0.00000000		 0.00016254	
Si		5.28720044		0.49455226		0.04453762		-0.00024070		-0.00011931		-0.00018259	
Si		9.14551817		5.73636815		0.04453762		 0.00024070		 0.00011931		-0.00018259	
Si		12.49203529		3.46593735		4.41103747		-0.00008112		-0.00026157		-0.00010144	
Si		1.94068473		2.76498165		4.41103747		 0.00008112		 0.00026157		-0.00010144	
O		6.11386795		4.08719327		8.67710856		-0.00035738		-0.00021778		-0.00000772	
O		8.31885207		2.14372714		8.67710856		 0.00035738		 0.00021778		-0.00000772	
O		13.15954662		5.06913396		4.31060871		-0.00002725		-0.00048608		-0.00015318	
O		1.27317340		1.16178645		4.31060871		 0.00002725		 0.00048608		-0.00015318	
O		1.38136251		3.62889351		0.04366535		-0.00004333		 0.00013816		 0.00028908	
O		13.05135751		2.60202549		0.04366535		 0.00004333		-0.00013816		 0.00028908	
O		8.43987474		4.77125937		4.41016520		 0.00028285		 0.00003646		 0.00024119	
O		5.99284528		1.45966103		4.41016520		-0.00028285		-0.00003646		 0.00024119	
O		3.50798057		0.39231707		3.01375752		-0.00008870		 0.00010361		-0.00011641	
O		10.92473945		5.83860334		3.01375752		 0.00008870		-0.00010361		-0.00011641	
O		10.70635643		3.28298098		7.38025737		 0.00004456		 0.00035757		 0.00022615	
O		3.72636360		2.94793943		7.38025737		-0.00004456		-0.00035757		 0.00022615	
O		3.78818896		2.90212155		1.41474637		-0.00043587		-0.00026534		-0.00032491	
O		10.64452965		3.32879745		1.41474637		 0.00043587		 0.00026534		-0.00032491	
O		10.99474020		5.89496578		5.78124623		-0.00006826		 0.00048079		-0.00058968	
O		3.43797982		0.33595462		5.78124623		 0.00006826		-0.00048079		-0.00058968	
O		1.12467997		0.82096261		1.33702185		 0.00003178		-0.00003591		-0.00005984	
O		13.30804145		5.40995780		1.33702185		-0.00003178		 0.00003591		-0.00005984	
O		8.22332770		2.46503051		5.70352171		-0.00004873		 0.00021613		 0.00007030	
O		6.20939232		3.76588990		5.70352171		 0.00004873		-0.00021613		 0.00007030	
O		6.29195651		3.78772328		3.16047264		 0.00037556		-0.00025679		 0.00006590	
O		8.14076351		2.44319572		3.16047264		-0.00037556		 0.00025679		 0.00006590	
O		13.38815345		5.40113807		7.52697249		-0.00036974		 0.00002658		-0.00033202	
O		1.04456657		0.82978234		7.52697249		 0.00036974		-0.00002658		-0.00033202	
O		5.87548190		1.24671279		1.39640628		-0.00012111		-0.00019141		-0.00017806	
O		8.55723812		4.98420762		1.39640628		 0.00012111		 0.00019141		-0.00017806	
O		12.96677445		2.79881853		5.76290754		-0.00012448		-0.00009319		-0.00005012	
O		1.46594557		3.43210047		5.76290754		 0.00012448		 0.00009319		-0.00005012	
O		1.52670733		3.59940388		3.03821051		-0.00046142		 0.00013422		-0.00005593	
O		12.90601410		2.63151652		3.03821051		 0.00046142		-0.00013422		-0.00005593	
O		8.59184035		4.82453372		7.40471036		 0.00006907		 0.00030935		-0.00037849	
O		5.84087967		1.40638528		7.40471036		-0.00006907		-0.00030935		-0.00037849	
O		3.64539762		0.31599802		0.06113036		-0.00021739		 0.00028336		 0.00012959	
O		10.78732381		5.91492238		0.06113036		 0.00021739		-0.00028336		 0.00012959	
O		10.85783244		3.38241226		4.42763162		-0.00013005		 0.00016650		 0.00007745	
O		3.57488758		2.84850955		4.42763162		 0.00013005		-0.00016650		 0.00007745	
H		4.45243211		3.40197634		0.87329997		-0.00062377		-0.00014762		-0.00026893	
H		9.98028791		2.82894407		0.87329997		 0.00062377		 0.00014762		-0.00026893	
H		11.58704815		5.49563542		5.23979982		 0.00031944		 0.00040840		-0.00009246	
H		2.84567187		0.73528359		5.23979982		-0.00031944		-0.00040840		-0.00009246	
H		3.86004960		1.22253836		3.92985057		 0.00005711		-0.00032348		-0.00025338	
H		10.57267042		5.00838205		3.92985057		-0.00005711		 0.00032348		-0.00025338	
H		10.92926961		2.49875765		8.29635042		 0.00022690		 0.00050921		-0.00014931	
H		3.50345041		3.73216135		8.29635042		-0.00022690		-0.00050921		-0.00014931	
