# total energy = -49447.0269238 eV	

CRYSTAL	
PRIMVEC	
		14.02400034		-0.56095945		0.00000000	
		-0.20436676		5.10900053		0.00000000	
		0.00000000		0.00000000		8.73300518	
PRIMCOORD
   70 1	
Mg		2.36054483		1.57813916		0.04628533		-0.00023768		-0.00004935		 0.00023357	
Mg		11.45909437		2.96990051		0.04628533		 0.00023768		 0.00004935		 0.00023357	
Mg		9.40438388		0.50167751		4.41278512		 0.00001771		 0.00038127		 0.00033787	
Mg		4.41525531		4.04636356		4.41278512		-0.00001771		-0.00038127		 0.00033787	
Mg		2.31845603		4.17053170		1.53002224		 0.00007827		-0.00007566		-0.00013752	
Mg		11.50118317		0.37750797		1.53002224		-0.00007827		 0.00007566		-0.00013752	
Mg		9.36552318		3.01334792		5.89652062		-0.00007710		 0.00053309		-0.00042371	
Mg		4.45411601		1.53469316		5.89652062		 0.00007710		-0.00053309		-0.00042371	
Mg		4.47304671		1.58647327		2.83123960		 0.00008504		-0.00036116		 0.00009175	
Mg		9.34659248		2.96156640		2.83123960		-0.00008504		 0.00036116		 0.00009175	
Mg		11.52432443		0.32404363		7.19773939		-0.00017129		 0.00000246		-0.00014913	
Mg		2.29531476		4.22399604		7.19773939		 0.00017129		-0.00000246		-0.00014913	
Mg		-0.10218057		2.55450026		7.23616360		0.00000000		0.00000000		-0.00004803	
Mg		7.01200017		-0.28047973		2.86966381		0.00000000		0.00000000		-0.00022182	
Mg		-0.10218057		2.55450026		1.63307159		0.00000000		0.00000000		 0.00014424	
Mg		7.01200017		-0.28047973		5.99957138		0.00000000		0.00000000		 0.00053306	
Mg		0.00000000		0.00000000		5.78561295		0.00000000		0.00000000		 0.00039993	
Mg		6.90981960		2.27402054		1.41911317		0.00000000		0.00000000		-0.00002419	
Mg		0.00000000		0.00000000		3.01725111		0.00000000		0.00000000		-0.00007773	
Mg		6.90981960		2.27402054		7.38375089		0.00000000		0.00000000		-0.00055710	
Si		0.00000000		0.00000000		0.06724412		0.00000000		0.00000000		-0.00002891	
Si		6.90981960		2.27402054		4.43374390		0.00000000		0.00000000		-0.00018873	
Si		5.27855714		-0.13922091		0.04453795		-0.00008920		-0.00042721		-0.00006035	
Si		8.54108345		4.68726058		0.04453795		 0.00008920		 0.00042721		-0.00006035	
Si		12.19413960		1.99072535		4.41103773		 0.00020710		 0.00025689		-0.00010348	
Si		1.62549959		2.55731432		4.41103773		-0.00020710		-0.00025689		-0.00010348	
O		5.67931726		3.38829306		8.67710854		 0.00007155		-0.00026100		-0.00043661	
O		8.14032334		1.15974661		8.67710854		-0.00007155		 0.00026100		-0.00043661	
O		12.67447797		3.52879397		4.31060875		 0.00016345		 0.00016956		-0.00054981	
O		1.14516262		1.01924570		4.31060875		-0.00016345		-0.00016956		-0.00054981	
O		0.95643671		3.49712492		0.04366496		 0.00011616		 0.00014730		-0.00004066	
O		12.86320248		1.05091475		0.04366496		-0.00011616		-0.00014730		-0.00004066	
O		7.94518053		3.79804834		4.41016474		 0.00052299		-0.00016563		-0.00017395	
O		5.87445867		0.74999133		4.41016474		-0.00052299		 0.00016563		-0.00017395	
O		3.49449191		-0.02756235		3.01375774		 0.00015938		 0.00014804		 0.00068159	
O		10.32514728		4.57560202		3.01375774		-0.00015938		-0.00014804		 0.00068159	
O		10.41330527		2.02166177		7.38025753		 0.00026726		 0.00032134		 0.00064437	
O		3.40633532		2.52637790		7.38025753		-0.00026726		-0.00032134		 0.00064437	
O		3.47429243		2.47265110		1.41474541		 0.00019207		-0.00029621		 0.00000721	
O		10.34534676		2.07538857		1.41474541		-0.00019207		 0.00029621		 0.00000721	
O		10.38901733		4.62405439		5.78124660		-0.00012563		 0.00009150		-0.00011867	
O		3.43062326		-0.07601472		5.78124660		 0.00012563		-0.00009150		-0.00011867	
O		1.03639532		0.69306310		1.33702260		 0.00029038		-0.00003877		 0.00018754	
O		12.78324387		3.85497657		1.33702260		-0.00029038		 0.00003877		 0.00018754	
O		8.00507159		1.49569070		5.70352239		-0.00012074		 0.00018096		 0.00041718	
O		5.81456760		3.05234897		5.70352239		 0.00012074		-0.00018096		 0.00041718	
O		5.89529394		3.06442346		3.16047345		 0.00001517		 0.00023372		-0.00013437	
O		7.92434525		1.48361761		3.16047345		-0.00001517		-0.00023372		-0.00013437	
O		12.86519689		3.83639535		7.52697184		 0.00055818		 0.00050903		-0.00060300	
O		0.95444371		0.71164432		7.52697184		-0.00055818		-0.00050903		-0.00060300	
O		5.78168029		0.54915864		1.39640700		 0.00004786		-0.00006741		-0.00038583	
O		8.03795891		3.99888103		1.39640700		-0.00004786		 0.00006741		-0.00038583	
O		12.75403518		1.25982471		5.76290678		-0.00035141		 0.00013710		-0.00010380	
O		1.06560541		3.28821496		5.76290678		 0.00035141		-0.00013710		-0.00010380	
O		1.10674684		3.44979537		3.03821130		-0.00011797		 0.00022637		 0.00023281	
O		12.71289376		1.09824430		3.03821130		 0.00011797		-0.00022637		 0.00023281	
O		8.09217975		3.83348585		7.40471108		 0.00012231		-0.00013601		 0.00033886	
O		5.72745944		0.71455382		7.40471108		-0.00012231		 0.00013601		 0.00033886	
O		3.64245395		-0.12121373		0.06113038		-0.00008030		-0.00016380		 0.00001996	
O		10.17718524		4.66925340		0.06113038		 0.00008030		 0.00016380		 0.00001996	
O		10.55423567		2.10375935		4.42763157		 0.00020778		 0.00030391		 0.00025947	
O		3.26540353		2.44428032		4.42763157		-0.00020778		-0.00030391		 0.00025947	
H		4.08458426		2.89711248		0.87330052		-0.00003462		-0.00005358		 0.00017653	
H		9.73505634		1.65092859		0.87330052		 0.00003462		 0.00005358		 0.00017653	
H		11.03527580		4.14933151		5.23980030		 0.00020033		 0.00063639		 0.00011389	
H		2.78436339		0.39870816		5.23980030		-0.00020033		-0.00063639		 0.00011389	
H		3.74969562		0.76816132		3.92985023		 0.00019259		-0.00030848		-0.00024159	
H		10.06994498		3.77987835		3.92985023		-0.00019259		 0.00030848		-0.00024159	
H		10.73308500		1.20294139		8.29635001		 0.00014883		 0.00016315		-0.00004548	
H		3.08655559		3.34509828		8.29635001		-0.00014883		-0.00016315		-0.00004548	
