# total energy = -14249.0450851 eV

CRYSTAL
PRIMVEC
		7.86000087		0.00000000		0.94319820
		0.00000000		7.86000087		0.00000000
		0.60288054		0.00000000		5.02400190
PRIMECORD
   24 1
O		1.25837420		2.82496273		1.41040925		 0.00025125		 0.00007535		-0.00020313
O		6.90829888		5.03503734		2.08839971		-0.00009654		-0.00001345		-0.00058666
O		3.27450598		6.75496238		4.08519175		-0.00025125		 0.00007535		 0.00020313
O		5.48458059		1.10503691		4.35040108		 0.00009654		-0.00001345		 0.00058666
O		1.12624017		1.46384567		4.03873600		 0.00020941		-0.00024357		 0.00035698
O		7.68430848		6.39615361		4.82570347		 0.00032048		 0.00043208		 0.00043656
O		1.59145153		7.20903459		1.23904159		-0.00045672		-0.00011852		-0.00010169
O		6.52375869		0.65096469		1.83091756		 0.00088243		-0.00018144		-0.00042186
O		3.40664002		5.39384690		1.45686421		-0.00020941		-0.00024357		-0.00035698
O		4.70857099		2.46615397		1.61309573		-0.00032048		 0.00043208		-0.00043656
O		2.94142786		3.27903495		4.25655862		 0.00045672		-0.00011852		 0.00010169
O		5.86912079		4.58096513		4.60788164		-0.00088243		-0.00018144		 0.00042186
O		0.49393994		3.92999964		4.11616304		-0.00081002		-0.00046634		-0.00039772
O		4.03893945		0.00000000		1.37943717		 0.00081002		-0.00046634		 0.00039772
Ca		2.91248713		1.32313660		2.85968956		 0.00006923		 0.00041020		 0.00012746
Ca		5.55876033		6.53686268		3.17724285		-0.00005500		-0.00000033		-0.00077775
Ca		1.62039306		5.25313704		2.63590986		-0.00006923		 0.00041020		-0.00012746
Ca		6.83411835		2.60686304		3.26155715		 0.00005500		-0.00000033		 0.00077775
Si		1.66361496		2.83030709		4.83131144		-0.00010321		-0.00011439		-0.00036139
Si		7.32422993		5.02969299		5.51058593		-0.00045413		 0.00036021		-0.00048113
Si		2.86926522		6.76030752		0.66428798		 0.00010321		-0.00011439		 0.00036139
Si		5.06865112		1.09969255		0.92821406		 0.00045413		 0.00036021		 0.00048113
Mg		0.00000000		0.00000000		0.00000000		-0.00020802		-0.00013981		-0.00011752
Mg		3.92999964		3.92999964		0.47159989		 0.00020802		-0.00013981		 0.00011752
