# total energy = -14249.0450852 eV

CRYSTAL
PRIMVEC
		7.86000087		0.00000000		-0.94319820
		0.00000000		7.86000087		0.00000000
		-0.60288054		0.00000000		5.02400190
PRIMECORD
   24 1
O		0.95170120		2.82496273		1.14519992		 0.00009675		 0.00001331		-0.00058588
O		6.60162587		5.03503734		0.46720867		-0.00025146		-0.00007516		-0.00020319
O		2.37541869		6.75496238		3.40719971		-0.00009675		 0.00001331		 0.00058588
O		4.58549409		1.10503691		3.14199117		 0.00025146		-0.00007516		 0.00020319
O		0.17569080		1.46384567		3.88250368		-0.00032041		-0.00043153		 0.00043602
O		6.73376070		6.39615361		3.09553621		-0.00020925		 0.00024476		 0.00035626
O		1.33624060		7.20903459		0.88771777		-0.00088254		 0.00018113		-0.00042207
O		6.26854775		0.65096469		0.29584180		 0.00045599		 0.00011872		-0.00010193
O		3.15142909		5.39384690		0.66989595		 0.00032041		-0.00043153		-0.00043602
O		4.45336006		2.46615397		0.51366363		 0.00020925		 0.00024476		-0.00035626
O		1.99087929		3.27903495		3.66468186		 0.00088254		 0.00018113		 0.00042207
O		4.91857142		4.58096513		3.31335883		-0.00045599		 0.00011872		 0.00010193
O		-0.49393994		3.92999964		4.11616304		 0.00080952		 0.00046609		-0.00039783
O		3.82105983		0.00000000		0.43623659		-0.00080952		 0.00046609		 0.00039783
Ca		2.30123896		1.32313660		2.23404306		 0.00005493		 0.00000047		-0.00077766
Ca		4.94751295		6.53686268		1.91648977		-0.00006911		-0.00041034		 0.00012707
Ca		1.02588093		5.25313704		2.31835657		-0.00005493		 0.00000047		 0.00077766
Ca		6.23960702		2.60686304		1.69271007		 0.00006911		-0.00041034		-0.00012707
Si		0.53577094		2.83030709		4.56738614		 0.00045428		-0.00035985		-0.00048156
Si		6.19638590		5.02969299		3.88811165		 0.00010256		 0.00011290		-0.00036067
Si		2.79134895		6.76030752		-0.01498572		-0.00045428		-0.00035985		 0.00048156
Si		4.99073406		1.09969255		-0.27891181		-0.00010256		 0.00011290		 0.00036067
Mg		0.00000000		0.00000000		0.00000000		 0.00020810		 0.00013950		-0.00011699
Mg		3.92999964		3.92999964		-0.47159989		-0.00020810		 0.00013950		 0.00011699
