# total energy = -18527.0467415 eV	

CRYSTAL	
PRIMVEC	
		4.68600089		0.56231897		0.00000000	
		-1.85601838		3.77703536		0.00000000	
		0.00000000		0.00000000		13.29099854	
PRIMCOORD
   30 1	
O		1.44135693		0.30335491		3.21110588		 0.00022200		 0.00035477		-0.00028158	
O		1.38862605		4.03599989		10.07989409		-0.00022200		-0.00035477		 0.00028158	
O		3.99888906		1.63139710		3.21110588		-0.00065083		 0.00003102		 0.00021143	
O		-1.16890608		2.70795818		10.07989409		 0.00065083		-0.00003102		-0.00021143	
O		2.07573693		2.96692319		3.21110588		 0.00055221		 0.00057005		 0.00047160	
O		0.75424605		1.37243209		10.07989409		-0.00055221		-0.00057005		-0.00047160	
O		3.94668394		1.93724585		7.64143935		 0.00022817		 0.00035765		-0.00025661	
O		1.06397102		1.33053698		1.21922807		-0.00023999		-0.00035095		 0.00024811	
O		1.81821707		2.70296812		7.64143935		-0.00064324		 0.00003479		 0.00023308	
O		3.19243790		0.56481518		1.21922807		 0.00064852		-0.00003770		-0.00024064	
O		1.75108191		0.26145980		7.64143935		 0.00055163		 0.00058367		 0.00048862	
O		3.25957400		3.00632303		1.21922807		-0.00054965		-0.00059788		-0.00050882	
O		1.76601195		3.00881830		12.07177330		 0.00023999		 0.00035095		-0.00024811	
O		-1.11670096		2.40210800		5.64956108		-0.00022817		-0.00035765		 0.00025661	
O		-0.36245492		3.77454009		12.07177330		-0.00064852		 0.00003770		 0.00024064	
O		1.01176591		1.63638715		5.64956108		 0.00064324		-0.00003479		-0.00023308	
O		-0.42959008		1.33303224		12.07177330		 0.00054965		 0.00059788		 0.00050882	
O		1.07890201		4.07789500		5.64956108		-0.00055163		-0.00058367		-0.00048862	
Mg		0.00000000		0.00000000		4.76615323		 0.00019774		 0.00045879		 0.00042719	
Mg		0.00000000		0.00000000		8.52484720		-0.00019774		-0.00045879		-0.00042719	
Mg		2.50532795		1.63389189		9.19648623		 0.00020069		 0.00047267		 0.00044706	
Mg		2.50532795		1.63389189		12.95518115		-0.00018931		-0.00044652		-0.00039097	
Mg		0.32465597		2.70546291		0.33581881		 0.00018931		 0.00044652		 0.00039097	
Mg		0.32465597		2.70546291		4.09451420		-0.00020069		-0.00047267		-0.00044706	
Si		0.00000000		0.00000000		2.08668692		-0.00014192		-0.00033734		 0.00022775	
Si		0.00000000		0.00000000		11.20431351		 0.00014192		 0.00033734		-0.00022775	
Si		2.50532795		1.63389189		6.51702134		-0.00013783		-0.00035206		 0.00019936	
Si		2.50532795		1.63389189		2.34364609		 0.00012942		 0.00036438		-0.00015929	
Si		0.32465597		2.70546291		10.94735434		-0.00012942		-0.00036438		 0.00015929	
Si		0.32465597		2.70546291		6.77398004		 0.00013783		 0.00035206		-0.00019936	
