# total energy = -18531.2322669 eV	

CRYSTAL	
PRIMVEC	
		4.68599846		0.37487894		0.00000000	
		-2.01834312		3.87075606		0.00000000	
		0.00000000		0.00000000		13.29099906	
PRIMCOORD
   30 1	
O		1.43606486		0.24633605		3.21110593		 0.00015052		 0.00035471		-0.00032064	
O		1.23159001		3.99929895		10.07989359		-0.00015052		-0.00035471		 0.00032064	
O		3.95215479		1.47704887		3.21110593		-0.00063886		 0.00004623		 0.00007337	
O		-1.28449897		2.76858566		10.07989359		 0.00063886		-0.00004623		-0.00007337	
O		1.96543604		2.89712996		3.21110593		 0.00041708		-0.00001040		 0.00073458	
O		0.70221977		1.34850504		10.07989359		-0.00041708		 0.00001040		-0.00073458	
O		3.88728280		1.78650674		7.64143879		 0.00014695		 0.00035685		-0.00029711	
O		1.01515402		1.29383604		1.21922787		-0.00014920		-0.00034622		 0.00028002	
O		1.71737285		2.64234109		7.64143879		-0.00063959		 0.00004898		 0.00009114	
O		3.18506302		0.43800217		1.21922787		 0.00064853		-0.00005064		-0.00011124	
O		1.74899910		0.19166705		7.64143879		 0.00041552		-0.00000228		 0.00074791	
O		3.15343771		2.88867667		1.21922787		-0.00039844		 0.00000407		-0.00077585	
O		1.65250180		2.95179896		12.07177260		 0.00014920		 0.00034622		-0.00028002	
O		-1.21962792		2.45912779		5.64956073		-0.00014695		-0.00035685		 0.00029711	
O		-0.51740815		3.80763283		12.07177260		-0.00064853		 0.00005064		 0.00011124	
O		0.95028203		1.60329391		5.64956073		 0.00063959		-0.00004898		-0.00009114	
O		-0.48578284		1.35695786		12.07177260		 0.00039844		-0.00000407		 0.00077585	
O		0.91865718		4.05396795		5.64956073		-0.00041552		 0.00000228		-0.00074791	
Mg		0.00000000		0.00000000		4.76615284		 0.00028301		-0.00001757		 0.00036896	
Mg		0.00000000		0.00000000		8.52484669		-0.00028301		 0.00001757		-0.00036896	
Mg		2.45121888		1.54017210		9.19648570		 0.00030409		 0.00000013		 0.00036824	
Mg		2.45121888		1.54017210		12.95518049		-0.00028279		 0.00002859		-0.00029756	
Mg		0.21643694		2.70546290		0.33581904		 0.00028279		-0.00002859		 0.00029756	
Mg		0.21643694		2.70546290		4.09451382		-0.00030409		-0.00000013		-0.00036824	
Si		0.00000000		0.00000000		2.08668678		 0.00020532		 0.00007537		-0.00015546	
Si		0.00000000		0.00000000		11.20431228		-0.00020532		-0.00007537		 0.00015546	
Si		2.45121888		1.54017210		6.51702058		 0.00019870		 0.00006257		-0.00018748	
Si		2.45121888		1.54017210		2.34364609		-0.00019899		-0.00005326		 0.00022730	
Si		0.21643694		2.70546290		10.94735344		 0.00019899		 0.00005326		-0.00022730	
Si		0.21643694		2.70546290		6.77397989		-0.00019870		-0.00006257		 0.00018748	
