# total energy = -20638.4067215 eV

CRYSTAL
PRIMVEC
		10.20140980		0.00000000		0.00000000
		0.00000000		5.98348390		-0.23933528
		0.00000000		-0.19021549		4.75533617
PRIMECORD
   28 1
Mg		0.00000000		0.00000000		0.00000000		0.00000000		0.00000000		0.00000000
Mg		5.10070490		-0.09510672		2.37767013		0.00000000		0.00000000		0.00000000
Mg		0.00000000		2.99173991		-0.11966968		0.00000000		0.00000000		0.00000000
Mg		5.10070490		2.89663318		2.25800045		0.00000000		-0.00000000		0.00000000
Mg		2.82885094		1.30727292		4.65508488		-0.00003256		 0.00007514		 0.00005443
Mg		7.37255886		4.48599243		-0.13908398		 0.00003256		-0.00007514		-0.00005443
Mg		2.27185396		4.39411955		2.15774507		 0.00003256		 0.00007514		 0.00005443
Mg		7.92955584		1.39914580		2.35825582		-0.00003256		-0.00007514		-0.00005443
Si		0.95893252		1.41476314		1.96784175		-0.00025731		 0.00020987		 0.00001335
Si		9.24247830		4.37850323		2.54815915		 0.00025731		-0.00020987		-0.00001335
Si		4.14177340		4.31139632		4.22584322		 0.00025731		 0.00020987		 0.00001335
Si		6.05963742		1.48187005		0.29015768		-0.00025731		-0.00020987		-0.00001335
O		0.93444914		1.35030043		3.57942680		 0.00010230		 0.00078254		-0.00040671
O		9.26696066		4.44296696		0.93657409		-0.00010230		-0.00078254		 0.00040671
O		4.16625576		4.43714604		1.08208700		-0.00010230		 0.00078254		-0.00040671
O		6.03515404		1.35612033		3.43391389		 0.00010230		-0.00078254		 0.00040671
O		4.55901004		1.45381413		0.99157091		 0.00024094		-0.00076881		-0.00005218
O		5.64239976		4.33945326		3.52442998		-0.00024094		 0.00076881		 0.00005218
O		0.54169486		4.35044732		3.24957136		-0.00024094		-0.00076881		-0.00005218
O		9.65971596		1.44281905		1.26642954		 0.00024094		 0.00076881		 0.00005218
O		1.65976937		0.14580977		1.31308670		 0.00063983		-0.00038476		-0.00025085
O		8.54164042		5.64745558		3.20291419		-0.00063983		 0.00038476		 0.00025085
O		3.44093552		5.63687978		3.46731025		 0.00037461		-0.00053970		-0.00033516
O		6.76047529		0.15638557		1.04869065		-0.00037461		 0.00053970		 0.00033516
O		8.54164042		3.05301876		3.30669109		 0.00037461		 0.00053970		 0.00033516
O		1.65976937		2.74024659		1.20930980		-0.00037461		-0.00053970		-0.00033516
O		6.76047529		2.75082341		0.94491272		 0.00063983		 0.00038476		 0.00025085
O		3.44093552		3.04244397		3.57108817		-0.00063983		-0.00038476		-0.00025085
