# total energy = -22441.2953827 eV	

CRYSTAL	
PRIMVEC	
		8.37402493		0.00000000		0.00000000	
		0.00000000		7.67699621		0.00000000	
		-0.48529987		0.00000000		4.72194518	
PRIMCOORD
   40 1	
Ca		6.14719166		0.51819806		0.42544736		 0.00000813		 0.00075860		 0.00046434	
Ca		1.74153759		7.15880318		4.29649614		-0.00000813		-0.00075860		-0.00046434	
Ca		1.98418585		4.35669701		1.93552523		-0.00000813		 0.00075860		-0.00046434	
Ca		5.90454424		3.32030256		2.78641911		 0.00000813		-0.00075860		 0.00046434	
Mg		1.83084322		1.25979585		1.90388816		-0.00045619		-0.00016905		-0.00032313	
Mg		6.05788687		6.41720372		2.81805618		 0.00045619		 0.00016905		 0.00032313	
Mg		6.30053513		5.09829563		0.45708359		 0.00045619		-0.00016905		 0.00032313	
Mg		1.58819496		2.57870394		4.26485907		-0.00045619		 0.00016905		-0.00032313	
Si		4.05290580		1.27438172		2.18484340		 0.00036732		-0.00009310		-0.00034487	
Si		3.83582428		6.40261784		2.53710010		-0.00036732		 0.00009310		 0.00034487	
Si		4.07847170		5.11288234		0.17612835		-0.00036732		-0.00009310		 0.00034487	
Si		3.81025838		2.56411806		4.54581515		 0.00036732		 0.00009310		-0.00034487	
Si		0.13679221		6.55846096		1.24375959		 0.00053987		 0.00039856		-0.00015278	
Si		7.75193704		1.11853861		3.47818391		-0.00053987		-0.00039856		 0.00015278	
Si		7.99458530		2.71996117		1.11721216		-0.00053987		 0.00039856		 0.00015278	
Si		-0.10585605		4.95703923		3.60473134		 0.00053987		-0.00039856		-0.00015278	
O		3.24206404		1.29971566		0.53310717		 0.00050919		-0.00065852		 0.00000711	
O		4.64666604		6.37728390		4.18883633		-0.00050919		 0.00065852		-0.00000711	
O		4.88931430		5.13821628		1.82786374		-0.00050919		-0.00065852		-0.00000711	
O		2.99941579		2.53878412		2.89407893		 0.00050919		 0.00065852		 0.00000711	
O		3.23516636		3.70875934		0.40467141		 0.00024970		-0.00033501		 0.00032328	
O		4.65356373		3.96824106		4.31727293		-0.00024970		 0.00033501		-0.00032328	
O		4.89621198		7.54725912		1.95630118		-0.00024970		-0.00033501		-0.00032328	
O		2.99251810		0.12974128		2.76564232		 0.00024970		 0.00033501		 0.00032328	
O		5.02365627		2.25089603		1.26217574		-0.00002253		 0.00023805		-0.00044664	
O		2.86507382		5.42610437		3.45976776		 0.00002253		-0.00023805		 0.00044664	
O		3.10772207		6.08939665		1.09879601		 0.00002253		 0.00023805		 0.00044664	
O		4.78100801		1.58760375		3.62314666		-0.00002253		-0.00023805		-0.00044664	
O		1.08808563		2.69923295		1.02371701		 0.00038355		 0.00035620		 0.00001394	
O		6.80064278		4.97776661		3.69822565		-0.00038355		-0.00035620		-0.00001394	
O		7.04329104		6.53773273		1.33725390		-0.00038355		 0.00035620		-0.00001394	
O		0.84543904		1.13926683		3.38468876		 0.00038355		-0.00035620		 0.00001394	
O		0.78806274		0.22186477		0.93636086		-0.00001892		-0.00027250		-0.00003878	
O		7.10066735		7.45513480		3.78558181		 0.00001892		 0.00027250		 0.00003878	
O		7.34331477		4.06036622		1.42461006		 0.00001892		-0.00027250		 0.00003878	
O		0.54541532		3.61663502		3.29733261		-0.00001892		 0.00027250		-0.00003878	
O		0.87234060		5.44299310		0.32817469		-0.00014989		-0.00002082		 0.00009366	
O		7.01638781		2.23400730		4.39376798		 0.00014989		 0.00002082		-0.00009366	
O		7.25903607		1.60449332		2.03279706		 0.00014989		-0.00002082		-0.00009366	
O		0.62969402		6.07250708		2.68914728		-0.00014989		 0.00002082		 0.00009366	
