# total energy = -22435.7649595 eV	

CRYSTAL	
PRIMVEC	
		8.14770007		0.00000000		0.00000000	
		0.00000000		7.67699929		0.00000000	
		-0.47218366		0.00000000		4.72194254	
PRIMCOORD
   40 1	
Ca		5.98105226		0.51819780		0.42544683		-0.00034866		 0.00015052		 0.00023956	
Ca		1.69446904		7.15880312		4.29649572		 0.00034866		-0.00015052		-0.00023956	
Ca		1.93055924		4.35669744		1.93552526		 0.00034866		 0.00015052		-0.00023956	
Ca		5.74496206		3.32030266		2.78641891		-0.00034866		-0.00015052		 0.00023956	
Mg		1.78136100		1.25979576		1.90388774		 0.00018650		 0.00021832		-0.00015294	
Mg		5.89416030		6.41720435		2.81805643		-0.00018650		-0.00021832		 0.00015294	
Mg		6.13024969		5.09829622		0.45708434		-0.00018650		 0.00021832		 0.00015294	
Mg		1.54527080		2.57870389		4.26485901		 0.00018650		-0.00021832		-0.00015294	
Si		3.94336788		1.27438177		2.18484325		 0.00001178		-0.00006871		-0.00055960	
Si		3.73215342		6.40261834		2.53710010		-0.00001178		 0.00006871		 0.00055960	
Si		3.96824281		5.11288223		0.17612802		-0.00001178		-0.00006871		 0.00055960	
Si		3.70727768		2.56411788		4.54581534		 0.00001178		 0.00006871		-0.00055960	
Si		0.13309512		6.55846103		1.24376027		 0.00038121		 0.00068600		-0.00000617	
Si		7.54242617		1.11853908		3.47818391		-0.00038121		-0.00068600		 0.00000617	
Si		7.77851475		2.71996138		1.11721182		-0.00038121		 0.00068600		 0.00000617	
Si		-0.10299508		4.95703873		3.60473072		 0.00038121		-0.00068600		-0.00000617	
O		3.15444075		1.29971623		0.53310727		 0.00022336		-0.00066745		-0.00010436	
O		4.52107974		6.37728388		4.18883608		-0.00022336		 0.00066745		 0.00010436	
O		4.75716994		5.13821587		1.82786400		-0.00022336		-0.00066745		 0.00010436	
O		2.91835136		2.53878423		2.89407936		 0.00022336		 0.00066745		-0.00010436	
O		3.14772867		3.70875893		0.40467100		-0.00019088		-0.00018795		 0.00009848	
O		4.52779181		3.96824118		4.31727317		 0.00019088		 0.00018795		-0.00009848	
O		4.76388201		7.54725939		1.95630108		 0.00019088		-0.00018795		-0.00009848	
O		2.91163928		0.12974072		2.76564228		-0.00019088		 0.00018795		 0.00009848	
O		4.88788105		2.25089584		1.26217570		 0.00006183		 0.00030877		-0.00022787	
O		2.78763862		5.42610426		3.45976766		-0.00006183		-0.00030877		 0.00022787	
O		3.02372882		6.08939712		1.09879639		-0.00006183		 0.00030877		 0.00022787	
O		4.65179166		1.58760380		3.62314697		 0.00006183		-0.00030877		-0.00022787	
O		1.05867874		2.69923282		1.02371696		 0.00039975		-0.00002505		-0.00018750	
O		6.61684174		4.97776729		3.69822640		-0.00039975		 0.00002505		 0.00018750	
O		6.85293194		6.53773328		1.33725431		-0.00039975		-0.00002505		 0.00018750	
O		0.82258936		1.13926683		3.38468905		 0.00039975		 0.00002505		-0.00018750	
O		0.76676376		0.22186513		0.93636139		 0.00020776		 0.00030147		-0.00033983	
O		6.90875673		7.45513497		3.78558196		-0.00020776		-0.00030147		 0.00033983	
O		7.14484693		4.06036641		1.42460988		-0.00020776		 0.00030147		 0.00033983	
O		0.53067437		3.61663533		3.29733267		 0.00020776		-0.00030147		-0.00033983	
O		0.84876466		5.44299282		0.32817469		-0.00077287		-0.00016908		 0.00031148	
O		6.82675583		2.23400729		4.39376785		 0.00077287		 0.00016908		-0.00031148	
O		7.06284603		1.60449317		2.03279739		 0.00077287		-0.00016908		-0.00031148	
O		0.61267527		6.07250694		2.68914678		-0.00077287		 0.00016908		 0.00031148	
