# total energy = -22458.8093058 eV	

CRYSTAL	
PRIMVEC	
		9.73197459		0.00000000		0.00000000	
		0.00000000		7.67700003		0.00000000	
		-0.56398739		0.00000000		4.72194434	
PRIMCOORD
   40 1	
Ca		7.14403331		0.51819845		0.42544689		-0.00003479		-0.00010913		-0.00024224	
Ca		2.02394902		7.15880255		4.29649550		 0.00003479		 0.00010913		 0.00024224	
Ca		2.30594466		4.35669652		1.93552527		 0.00003479		-0.00010913		 0.00024224	
Ca		6.86203766		3.32030254		2.78641906		-0.00003479		 0.00010913		-0.00024224	
Mg		2.12773567		1.25979632		1.90388760		-0.00001465		-0.00071604		 0.00012160	
Mg		7.04024666		6.41720370		2.81805577		 0.00001465		 0.00071604		-0.00012160	
Mg		7.32224231		5.09829537		0.45708360		 0.00001465		-0.00071604		-0.00012160	
Mg		1.84574002		2.57870369		4.26485879		-0.00001465		 0.00071604		 0.00012160	
Si		4.71013361		1.27438164		2.18484289		 0.00016636		-0.00001005		-0.00006564	
Si		4.45784872		6.40261742		2.53709950		-0.00016636		 0.00001005		 0.00006564	
Si		4.73984436		5.11288165		0.17612830		-0.00016636		-0.00001005		 0.00006564	
Si		4.42813797		2.56411741		4.54581506		 0.00016636		 0.00001005		-0.00006564	
Si		0.15897472		6.55846040		1.24375998		-0.00080330		-0.00003979		 0.00015388	
Si		9.00900761		1.11853866		3.47818339		 0.00080330		 0.00003979		-0.00015388	
Si		9.29100325		2.71996135		1.11721219		 0.00080330		-0.00003979		-0.00015388	
Si		-0.12302092		4.95703867		3.60473117		-0.00080330		 0.00003979		 0.00015388	
O		3.76780403		1.29971591		0.53310686		 0.00002761		 0.00017508		 0.00061190	
O		5.40017830		6.37728412		4.18883553		-0.00002761		-0.00017508		-0.00061190	
O		5.68217491		5.13821593		1.82786433		-0.00002761		 0.00017508		-0.00061190	
O		3.48580742		2.53878410		2.89407903		 0.00002761		-0.00017508		 0.00061190	
O		3.75978780		3.70875917		0.40467107		 0.00015697		-0.00007864		 0.00042985	
O		5.40819550		3.96824086		4.31727326		-0.00015697		 0.00007864		-0.00042985	
O		5.69019211		7.54725821		1.95630109		-0.00015697		-0.00007864		-0.00042985	
O		3.47779216		0.12974085		2.76564227		 0.00015697		 0.00007864		 0.00042985	
O		5.83830304		2.25089575		1.26217579		 0.00014594		 0.00023991		 0.00010499	
O		3.32968027		5.42610331		3.45976757		-0.00014594		-0.00023991		-0.00010499	
O		3.61167688		6.08939674		1.09879638		-0.00014594		 0.00023991		-0.00010499	
O		5.55630642		1.58760426		3.62314699		 0.00014594		-0.00023991		 0.00010499	
O		1.26453288		2.69923322		1.02371711		 0.00017844		-0.00006490		-0.00008851	
O		7.90344945		4.97776681		3.69822625		-0.00017844		 0.00006490		 0.00008851	
O		8.18544704		6.53773226		1.33725408		-0.00017844		-0.00006490		 0.00008851	
O		0.98253723		1.13926679		3.38468928		 0.00017844		 0.00006490		-0.00008851	
O		0.91585666		0.22186469		0.93636096		-0.00034837		 0.00011103		 0.00044247	
O		8.25212567		7.45513437		3.78558143		 0.00034837		-0.00011103		-0.00044247	
O		8.53412131		4.06036568		1.42461023		 0.00034837		 0.00011103		-0.00044247	
O		0.63386102		3.61663532		3.29733313		-0.00034837		-0.00011103		 0.00044247	
O		1.01380218		5.44299315		0.32817483		 0.00002510		 0.00086267		-0.00010569	
O		8.15418113		2.23400688		4.39376756		-0.00002510		-0.00086267		 0.00010569	
O		8.43617677		1.60449313		2.03279733		-0.00002510		 0.00086267		 0.00010569	
O		0.73180556		6.07250690		2.68914700		 0.00002510		-0.00086267		-0.00010569	
