# total energy = -7175.14096639 eV

CRYSTAL
PRIMVEC
		3.03338475		0.00000000		0.00000000
		-1.51669237		2.62698866		0.00000000
		0.00000000		0.00000000		11.41926340
PRIMECORD
   12 1
O		0.00000000		1.75132598		4.66024784		0.00000000		0.00000000		 0.00030066
O		1.51669269		0.87566299		6.75901431		0.00000000		0.00000000		-0.00030092
O		0.00000000		1.75132598		9.16268615		-0.00000003		 0.00000002		 0.00024871
O		1.51669300		0.87566299		2.25657631		 0.00000001		0.00000000		-0.00024971
O		0.00000000		0.00000000		0.00000000		-0.00000001		 0.00000002		 0.00000001
H		0.00000000		1.75132598		3.69952580		0.00000000		0.00000000		-0.00029160
H		1.51669269		0.87566299		7.71973635		-0.00000000		-0.00000000		 0.00029187
H		0.00000000		1.75132598		8.19854215		0.00000000		-0.00000000		-0.00012943
H		1.51669300		0.87566299		3.22071969		-0.00000000		-0.00000000		 0.00013039
Mg		0.00000000		0.00000000		5.70963108		-0.00000000		-0.00000001		 0.00000002
Mg		1.51669300		0.87566299		10.22028227		 0.00000003		-0.00000002		 0.00029169
Mg		0.00000000		1.75132598		1.19897988		-0.00000001		-0.00000001		-0.00029167
