# total energy = -10831.6946767 eV

CRYSTAL
PRIMVEC
		3.03200014		0.00000000		0.00000000
		-1.51600007		2.62578792		0.00000000
		0.00000000		0.00000000		13.83800015
PRIMECORD
   13 1
Mg		1.51600007		0.87526294		2.30633305		-0.00000000		0.00000000		 0.00015126
Mg		0.00000000		1.75052619		11.53166648		0.00000000		-0.00000000		-0.00015126
Mg		0.00000000		0.00000000		0.00000000		0.00000000		-0.00000000		0.00000000
Mg		0.00000000		1.75052619		4.61266732		0.00000000		-0.00000000		-0.00036294
Mg		1.51600007		0.87526294		9.22533343		0.00000000		0.00000000		 0.00036294
O		1.51600007		0.87526294		12.68483468		0.00000000		-0.00000000		-0.00069372
O		0.00000000		1.75052619		1.15316607		0.00000000		0.00000000		 0.00069372
O		1.51600007		0.87526294		5.63206640		0.00000000		0.00000000		 0.00034130
O		0.00000000		1.75052619		8.20593435		0.00000000		0.00000000		-0.00034130
O		0.00000000		0.00000000		10.38126742		0.00000000		-0.00000000		 0.00061512
O		0.00000000		0.00000000		3.45673303		0.00000000		0.00000000		-0.00061512
H		1.51600007		0.87526294		6.54814219		0.00000000		-0.00000000		 0.00030627
H		0.00000000		1.75052619		7.28985947		0.00000000		0.00000000		-0.00030627
