# total energy = -10831.7033277 eV

CRYSTAL
PRIMVEC
		3.03200014		0.00000000		0.00000000
		-1.51600007		2.62578792		0.00000000
		0.00000000		0.00000000		16.45600189
PRIMECORD
   13 1
Mg		1.51600007		0.87526294		2.74266698		0.00000000		0.00000000		-0.00001751
Mg		0.00000000		1.75052619		13.71333370		0.00000000		0.00000000		 0.00001751
Mg		0.00000000		0.00000000		0.00000000		-0.00000000		-0.00000000		0.00000000
Mg		0.00000000		1.75052619		5.48533427		0.00000000		0.00000000		-0.00027665
Mg		1.51600007		0.87526294		10.97066641		0.00000000		-0.00000000		 0.00027665
O		1.51600007		0.87526294		15.08466764		0.00000000		0.00000000		-0.00006103
O		0.00000000		1.75052619		1.37133304		0.00000000		0.00000000		 0.00006103
O		1.51600007		0.87526294		6.69759220		0.00000000		0.00000000		 0.00006051
O		0.00000000		1.75052619		9.75840848		0.00000000		-0.00000000		-0.00006051
O		0.00000000		0.00000000		12.34529160		0.00000000		0.00000000		 0.00012793
O		0.00000000		0.00000000		4.11070909		0.00000000		-0.00000000		-0.00012793
H		1.51600007		0.87526294		7.78697924		0.00000000		-0.00000000		 0.00027287
H		0.00000000		1.75052619		8.66902144		0.00000000		-0.00000000		-0.00027287
