# total energy = -10831.9128013 eV

CRYSTAL
PRIMVEC
		3.03200014		0.00000000		0.00000000
		-1.51600007		2.62578792		0.00000000
		0.00000000		0.00000000		14.58600064
PRIMECORD
   13 1
Mg		1.51600007		0.87526294		2.43100011		0.00000000		-0.00000000		-0.00011912
Mg		0.00000000		1.75052619		12.15500054		0.00000000		-0.00000000		 0.00011912
Mg		0.00000000		0.00000000		0.00000000		0.00000000		0.00000000		0.00000000
Mg		0.00000000		1.75052619		4.86200021		0.00000000		-0.00000000		-0.00031163
Mg		1.51600007		0.87526294		9.72399952		0.00000000		0.00000000		 0.00031163
O		1.51600007		0.87526294		13.37050059		0.00000000		-0.00000000		 0.00065573
O		0.00000000		1.75052619		1.21550005		0.00000000		0.00000000		-0.00065573
O		1.51600007		0.87526294		5.93650226		0.00000000		-0.00000000		-0.00014518
O		0.00000000		1.75052619		8.64949839		0.00000000		0.00000000		 0.00014518
O		0.00000000		0.00000000		10.94241757		0.00000000		0.00000000		-0.00005017
O		0.00000000		0.00000000		3.64358307		0.00000000		-0.00000000		 0.00005017
H		1.51600007		0.87526294		6.90209546		0.00000000		-0.00000000		-0.00058124
H		0.00000000		1.75052619		7.68390549		0.00000000		-0.00000000		 0.00058124
