# total energy = -2069.12175721 eV	

CRYSTAL	
PRIMVEC	
		2.79111974		0.00000000		0.00000000	
		-1.39555987		2.54440150		0.00000000	
		0.00000000		0.00000000		2.67967870	
PRIMCOORD
   2 1	
Mg		0.00000000		0.00000000		0.00000000		0.00000000		 0.00079128		0.00000000	
O		0.00000000		1.69626674		1.33983991		0.00000000		-0.00079128		0.00000000	
