# total energy = -2068.96301388 eV	

CRYSTAL	
PRIMVEC	
		3.23182275		0.00000000		0.00000000	
		-1.61591137		2.54440112		0.00000000	
		0.00000000		0.00000000		2.67967876	
PRIMCOORD
   2 1	
Mg		0.00000000		0.00000000		0.00000000		0.00000000		 0.00085061		0.00000000	
O		0.00000000		1.69626677		1.33984003		0.00000000		-0.00085061		0.00000000	
