# total energy = -44012.3547379 eV

CRYSTAL
PRIMVEC
		9.81799975		0.00000000		0.00000000
		0.00000000		18.04700533		0.00000000
		-1.33411890		0.00000000		5.35867408
PRIMECORD
   82 1
Si		2.35753443		1.51594825		1.58831182		 0.00000037		 0.00000362		 0.00014331
Si		6.12634446		16.53105217		3.77036619		-0.00000037		-0.00000362		-0.00014331
Si		6.12634446		1.51594825		3.77036619		-0.00000037		 0.00000362		-0.00014331
Si		2.35753443		16.53105217		1.58831182		 0.00000037		-0.00000362		 0.00014331
Si		7.26653430		10.53944797		1.58831182		 0.00006120		 0.00001869		 0.00015744
Si		1.21734557		7.50755245		3.77036619		-0.00006120		-0.00001869		-0.00015744
Si		1.21734557		10.53944797		3.77036619		-0.00006120		 0.00001869		-0.00015744
Si		7.26653430		7.50755245		1.58831182		 0.00006120		-0.00001869		 0.00015744
Si		1.76155730		3.08784241		4.30944899		-0.00003380		 0.00002780		 0.00006462
Si		6.72232257		14.95915899		1.04922902		 0.00003380		-0.00002780		-0.00006462
Si		6.72232257		3.08784241		1.04922902		 0.00003380		 0.00002780		-0.00006462
Si		1.76155730		14.95915899		4.30944899		-0.00003380		-0.00002780		 0.00006462
Si		6.67055717		12.11134311		4.30944899		 0.00011422		 0.00016186		 0.00007900
Si		1.81332172		5.93565829		1.04922902		-0.00011422		-0.00016186		-0.00007900
Si		1.81332172		12.11134311		1.04922902		-0.00011422		 0.00016186		-0.00007900
Si		6.67055717		5.93565829		4.30944899		 0.00011422		-0.00016186		 0.00007900
O		2.58846753		2.13856947		3.15304669		-0.00000505		 0.00015615		 0.00006319
O		5.89541038		15.90843095		2.20563230		 0.00000505		-0.00015615		-0.00006319
O		5.89541038		2.13856947		2.20563230		 0.00000505		 0.00015615		-0.00006319
O		2.58846753		15.90843095		3.15304669		-0.00000505		-0.00015615		 0.00006319
O		7.49746838		11.16207017		3.15304669		-0.00002363		 0.00013375		 0.00004150
O		0.98641051		6.88493123		2.20563230		 0.00002363		-0.00013375		-0.00004150
O		0.98641051		11.16207017		2.20563230		 0.00002363		 0.00013375		-0.00004150
O		7.49746838		6.88493123		3.15304669		-0.00002363		-0.00013375		 0.00004150
O		0.80703271		1.55204216		1.16336915		-0.00005013		 0.00004871		 0.00001387
O		7.67684716		16.49495727		4.19530984		 0.00005013		-0.00004871		-0.00001387
O		7.67684716		1.55204216		4.19530984		 0.00005013		 0.00004871		-0.00001387
O		0.80703271		16.49495727		1.16336915		-0.00005013		-0.00004871		 0.00001387
O		5.71603258		10.57554286		1.16336915		-0.00009256		 0.00006013		 0.00000664
O		2.76784729		7.47145756		4.19530984		 0.00009256		-0.00006013		-0.00000664
O		2.76784729		10.57554286		4.19530984		 0.00009256		 0.00006013		-0.00000664
O		5.71603258		7.47145756		1.16336915		-0.00009256		-0.00006013		 0.00000664
O		2.52914030		4.47565595		4.25103975		 0.00022392		 0.00022570		 0.00011682
O		5.95473957		13.57134349		1.10763924		-0.00022392		-0.00022570		-0.00011682
O		5.95473957		4.47565595		1.10763924		-0.00022392		 0.00022570		-0.00011682
O		2.52914030		13.57134349		4.25103975		 0.00022392		-0.00022570		 0.00011682
O		7.43813919		13.49915665		4.25103975		 0.00013785		 0.00012113		 0.00010656
O		1.04573970		4.54784377		1.10763924		-0.00013785		-0.00012113		-0.00010656
O		1.04573970		13.49915665		1.10763924		-0.00013785		 0.00012113		-0.00010656
O		7.43813919		4.54784377		4.25103975		 0.00013785		-0.00012113		 0.00010656
O		2.91896987		0.00000000		1.56526995		-0.00000949		-0.00000000		 0.00017853
O		5.56491000		0.00000000		3.79340904		 0.00000949		-0.00000000		-0.00017853
O		7.82796876		9.02349972		1.56526995		-0.00000652		0.00000000		 0.00017694
O		0.65591013		9.02349972		3.79340904		 0.00000652		0.00000000		-0.00017694
O		0.19753030		3.08964696		3.87968274		-0.00007719		-0.00020421		 0.00001858
O		8.28634957		14.95735346		1.47899526		 0.00007719		 0.00020421		-0.00001858
O		8.28634957		3.08964696		1.47899526		 0.00007719		-0.00020421		-0.00001858
O		0.19753030		14.95735346		3.87968274		-0.00007719		 0.00020421		 0.00001858
O		5.10653018		12.11314766		3.87968274		-0.00015034		-0.00022027		-0.00000032
O		3.37734970		5.93385374		1.47899526		 0.00015034		 0.00022027		 0.00000032
O		3.37734970		12.11314766		1.47899526		 0.00015034		-0.00022027		 0.00000032
O		5.10653018		5.93385374		3.87968274		-0.00015034		 0.00022027		-0.00000032
O		0.12189047		0.00000000		3.83252689		-0.00052852		0.00000000		 0.00009783
O		8.36198940		0.00000000		1.52615210		 0.00052852		0.00000000		-0.00009783
O		5.03089034		9.02349972		3.83252689		-0.00036798		-0.00000000		 0.00014383
O		3.45298953		9.02349972		1.52615210		 0.00036798		-0.00000000		-0.00014383
O		3.26959224		2.42371167		0.53158087		 0.00002561		-0.00018988		-0.00009473
O		5.21428665		15.62328875		4.82709812		-0.00002561		 0.00018988		 0.00009473
O		5.21428665		2.42371167		4.82709812		-0.00002561		-0.00018988		 0.00009473
O		3.26959224		15.62328875		0.53158087		 0.00002561		 0.00018988		-0.00009473
O		8.17859310		11.44721237		0.53158087		-0.00000921		-0.00021538		-0.00007783
O		0.30528678		6.59978805		4.82709812		 0.00000921		 0.00021538		 0.00007783
O		0.30528678		11.44721237		4.82709812		 0.00000921		-0.00021538		 0.00007783
O		8.17859310		6.59978805		0.53158087		-0.00000921		 0.00021538		-0.00007783
Ca		-0.66706043		5.00984644		2.67933900		0.00000000		 0.00000287		0.00000000
Ca		-0.66706043		13.03715398		2.67933900		0.00000000		-0.00000287		0.00000000
Ca		4.24193944		14.03334812		2.67933900		0.00000000		-0.00001787		0.00000000
Ca		4.24193944		4.01365328		2.67933900		0.00000000		 0.00001787		0.00000000
Mg		0.00000000		0.00000000		0.00000000		0.00000000		0.00000000		0.00000000
Mg		4.90899987		9.02349972		0.00000000		0.00000000		0.00000000		0.00000000
Mg		0.00000000		3.18709944		0.00000000		0.00000000		-0.00023597		0.00000000
Mg		0.00000000		14.85990098		0.00000000		0.00000000		 0.00023597		0.00000000
Mg		4.90899987		12.21060014		0.00000000		0.00000000		-0.00024699		0.00000000
Mg		4.90899987		5.83640028		0.00000000		0.00000000		 0.00024699		0.00000000
Mg		-0.66706043		1.58452698		2.67933900		0.00000000		 0.00011095		0.00000000
Mg		-0.66706043		16.46247344		2.67933900		0.00000000		-0.00011095		0.00000000
Mg		4.24193944		10.60802768		2.67933900		0.00000000		 0.00020038		0.00000000
Mg		4.24193944		7.43897372		2.67933900		0.00000000		-0.00020038		0.00000000
H		0.92650893		0.00000000		4.12618326		 0.00057646		0.00000000		 0.00049080
H		7.55736996		0.00000000		1.23249573		-0.00057646		0.00000000		-0.00049080
H		5.83550880		9.02349972		4.12618326		 0.00045489		0.00000000		 0.00046407
H		2.64837009		9.02349972		1.23249573		-0.00045489		0.00000000		-0.00046407
