# total energy = -20636.432529 eV	

CRYSTAL	
PRIMVEC	
		10.05000003		0.00000000		0.00000000	
		0.00000000		5.74999697		0.00000000	
		0.00000000		0.00000000		4.74825316	
PRIMCOORD
   28 1	
Si		3.34665001		0.00000000		4.26725212		 0.00018286		-0.00000000		-0.00015366	
Si		6.70335002		0.00000000		0.48099803		-0.00018286		-0.00000000		 0.00015366	
Si		8.37165002		2.87500049		4.26725212		 0.00021090		-0.00000000		-0.00017117	
Si		1.67835000		2.87500049		0.48099803		-0.00021090		-0.00000000		 0.00017117	
Mg		0.00000000		0.00000000		0.00000000		0.00000000		0.00000000		0.00000000	
Mg		5.02500001		2.87500049		0.00000000		0.00000000		0.00000000		0.00000000	
Mg		5.02500001		0.00000000		2.37412457		0.00000000		0.00000000		0.00000000	
Mg		0.00000000		2.87500049		2.37412457		0.00000000		0.00000000		0.00000000	
Mg		2.51250001		1.43749974		2.37412457		-0.00001519		-0.00000111		-0.00000003	
Mg		7.53750002		4.31250024		2.37412457		 0.00001519		 0.00000111		 0.00000003	
Mg		7.53750002		1.43749974		2.37412457		 0.00001519		-0.00000111		 0.00000003	
Mg		2.51250001		4.31250024		2.37412457		-0.00001519		 0.00000111		-0.00000003	
O		8.23497002		0.00000000		1.05411134		 0.00003801		0.00000000		-0.00010493	
O		1.81503001		0.00000000		3.69413781		-0.00003801		0.00000000		 0.00010493	
O		3.20997001		2.87500049		1.05411134		 0.00000103		0.00000000		-0.00009264	
O		6.84003002		2.87500049		3.69413781		-0.00000103		0.00000000		 0.00009264	
O		3.35770501		0.00000000		1.11726252		 0.00001305		0.00000000		 0.00028516	
O		6.69229502		0.00000000		3.63098662		-0.00001305		0.00000000		-0.00028516	
O		8.38270502		2.87500049		1.11726252		 0.00003274		0.00000000		 0.00027587	
O		1.66729500		2.87500049		3.63098662		-0.00003274		0.00000000		-0.00027587	
O		0.91254000		1.55422547		1.06978130		-0.00028209		-0.00005698		 0.00024478	
O		9.13746003		4.19577451		3.67846885		 0.00028209		 0.00005698		-0.00024478	
O		9.13746003		1.55422547		3.67846885		 0.00028209		-0.00005698		-0.00024478	
O		0.91254000		4.19577451		1.06978130		-0.00028209		 0.00005698		 0.00024478	
O		5.93754002		4.42922496		1.06978130		-0.00025757		-0.00005274		 0.00023018	
O		4.11246001		1.32077502		3.67846885		 0.00025757		 0.00005274		-0.00023018	
O		4.11246001		4.42922496		3.67846885		 0.00025757		-0.00005274		-0.00023018	
O		5.93754002		1.32077502		1.06978130		-0.00025757		 0.00005274		 0.00023018	
