# total energy = -20634.5694915 eV	

CRYSTAL	
PRIMVEC	
		10.05000003		0.00000000		0.00000000	
		0.00000000		5.74999697		0.00000000	
		0.00000000		0.00000000		4.50475171	
PRIMCOORD
   28 1	
Si		3.34665001		0.00000000		4.04841940		 0.00022046		0.00000000		 0.00004839	
Si		6.70335002		0.00000000		0.45633131		-0.00022046		0.00000000		-0.00004839	
Si		8.37165002		2.87500049		4.04841940		 0.00023850		0.00000000		 0.00006268	
Si		1.67835000		2.87500049		0.45633131		-0.00023850		0.00000000		-0.00006268	
Mg		0.00000000		0.00000000		0.00000000		0.00000000		0.00000000		0.00000000	
Mg		5.02500001		2.87500049		0.00000000		0.00000000		0.00000000		0.00000000	
Mg		5.02500001		0.00000000		2.25237485		0.00000000		0.00000000		0.00000000	
Mg		0.00000000		2.87500049		2.25237485		0.00000000		0.00000000		0.00000000	
Mg		2.51250001		1.43749974		2.25237485		-0.00002781		-0.00000795		 0.00000404	
Mg		7.53750002		4.31250024		2.25237485		 0.00002781		 0.00000795		-0.00000404	
Mg		7.53750002		1.43749974		2.25237485		 0.00002781		-0.00000795		-0.00000404	
Mg		2.51250001		4.31250024		2.25237485		-0.00002781		 0.00000795		 0.00000404	
O		8.23497002		0.00000000		1.00005440		 0.00008016		0.00000000		-0.00011322	
O		1.81503001		0.00000000		3.50469531		-0.00008016		0.00000000		 0.00011322	
O		3.20997001		2.87500049		1.00005440		 0.00004028		-0.00000000		-0.00009595	
O		6.84003002		2.87500049		3.50469531		-0.00004028		-0.00000000		 0.00009595	
O		3.35770501		0.00000000		1.05996848		 0.00005279		0.00000000		 0.00008949	
O		6.69229502		0.00000000		3.44478223		-0.00005279		0.00000000		-0.00008949	
O		8.38270502		2.87500049		1.05996848		 0.00007087		0.00000000		 0.00005788	
O		1.66729500		2.87500049		3.44478223		-0.00007087		0.00000000		-0.00005788	
O		0.91254000		1.55422547		1.01492036		-0.00031407		-0.00014005		 0.00028541	
O		9.13746003		4.19577451		3.48983035		 0.00031407		 0.00014005		-0.00028541	
O		9.13746003		1.55422547		3.48983035		 0.00031407		-0.00014005		-0.00028541	
O		0.91254000		4.19577451		1.01492036		-0.00031407		 0.00014005		 0.00028541	
O		5.93754002		4.42922496		1.01492036		-0.00028439		-0.00013104		 0.00027241	
O		4.11246001		1.32077502		3.48983035		 0.00028439		 0.00013104		-0.00027241	
O		4.11246001		4.42922496		3.48983035		 0.00028439		-0.00013104		-0.00027241	
O		5.93754002		1.32077502		1.01492036		-0.00028439		 0.00013104		 0.00027241	
