# total energy = -20634.8586852 eV	

CRYSTAL	
PRIMVEC	
		10.05000003		0.00000000		0.00000000	
		0.00000000		5.74999697		0.00000000	
		0.00000000		0.00000000		5.23524602	
PRIMCOORD
   28 1	
Si		3.34665001		0.00000000		4.70491857		 0.00009924		-0.00000000		-0.00001077	
Si		6.70335002		0.00000000		0.53033147		-0.00009924		-0.00000000		 0.00001077	
Si		8.37165002		2.87500049		4.70491857		 0.00014633		0.00000000		-0.00002347	
Si		1.67835000		2.87500049		0.53033147		-0.00014633		0.00000000		 0.00002347	
Mg		0.00000000		0.00000000		0.00000000		0.00000000		0.00000000		0.00000000	
Mg		5.02500001		2.87500049		0.00000000		0.00000000		0.00000000		0.00000000	
Mg		5.02500001		0.00000000		2.61762502		0.00000000		0.00000000		0.00000000	
Mg		0.00000000		2.87500049		2.61762502		0.00000000		0.00000000		0.00000000	
Mg		2.51250001		1.43749974		2.61762502		 0.00002743		 0.00001041		-0.00000578	
Mg		7.53750002		4.31250024		2.61762502		-0.00002743		-0.00001041		 0.00000578	
Mg		7.53750002		1.43749974		2.61762502		-0.00002743		 0.00001041		 0.00000578	
Mg		2.51250001		4.31250024		2.61762502		 0.00002743		-0.00001041		-0.00000578	
O		8.23497002		0.00000000		1.16222522		-0.00030279		-0.00000000		-0.00050606	
O		1.81503001		0.00000000		4.07302381		 0.00030279		-0.00000000		 0.00050606	
O		3.20997001		2.87500049		1.16222522		-0.00032721		0.00000000		-0.00049880	
O		6.84003002		2.87500049		4.07302381		 0.00032721		0.00000000		 0.00049880	
O		3.35770501		0.00000000		1.23185363		-0.00009683		0.00000000		-0.00081390	
O		6.69229502		0.00000000		4.00339641		 0.00009683		0.00000000		 0.00081390	
O		8.38270502		2.87500049		1.23185363		-0.00008240		0.00000000		-0.00083226	
O		1.66729500		2.87500049		4.00339641		 0.00008240		0.00000000		 0.00083226	
O		0.91254000		1.55422547		1.17950217		-0.00004535		 0.00033116		-0.00009825	
O		9.13746003		4.19577451		4.05574786		 0.00004535		-0.00033116		 0.00009825	
O		9.13746003		1.55422547		4.05574786		 0.00004535		 0.00033116		 0.00009825	
O		0.91254000		4.19577451		1.17950217		-0.00004535		-0.00033116		-0.00009825	
O		5.93754002		4.42922496		1.17950217		-0.00002980		 0.00033795		-0.00011617	
O		4.11246001		1.32077502		4.05574786		 0.00002980		-0.00033795		 0.00011617	
O		4.11246001		4.42922496		4.05574786		 0.00002980		 0.00033795		 0.00011617	
O		5.93754002		1.32077502		1.17950217		-0.00002980		-0.00033795		-0.00011617	
