# total energy = -20636.4327151 eV	

CRYSTAL	
PRIMVEC	
		10.05000003		0.00000000		0.00000000	
		0.00000000		5.74999697		0.00000000	
		0.00000000		0.00000000		4.99175461	
PRIMCOORD
   28 1	
Si		3.34665001		0.00000000		4.48608585		 0.00016257		0.00000000		 0.00027571	
Si		6.70335002		0.00000000		0.50566374		-0.00016257		0.00000000		-0.00027571	
Si		8.37165002		2.87500049		4.48608585		 0.00020485		0.00000000		 0.00026265	
Si		1.67835000		2.87500049		0.50566374		-0.00020485		0.00000000		-0.00026265	
Mg		0.00000000		0.00000000		0.00000000		0.00000000		0.00000000		0.00000000	
Mg		5.02500001		2.87500049		0.00000000		0.00000000		0.00000000		0.00000000	
Mg		5.02500001		0.00000000		2.49587530		0.00000000		0.00000000		0.00000000	
Mg		0.00000000		2.87500049		2.49587530		0.00000000		0.00000000		0.00000000	
Mg		2.51250001		1.43749974		2.49587530		 0.00000174		 0.00000392		-0.00000334	
Mg		7.53750002		4.31250024		2.49587530		-0.00000174		-0.00000392		 0.00000334	
Mg		7.53750002		1.43749974		2.49587530		-0.00000174		 0.00000392		 0.00000334	
Mg		2.51250001		4.31250024		2.49587530		 0.00000174		-0.00000392		-0.00000334	
O		8.23497002		0.00000000		1.10816828		 0.00018817		0.00000000		-0.00039743	
O		1.81503001		0.00000000		3.88358131		-0.00018817		0.00000000		 0.00039743	
O		3.20997001		2.87500049		1.10816828		 0.00015658		-0.00000000		-0.00038870	
O		6.84003002		2.87500049		3.88358131		-0.00015658		-0.00000000		 0.00038870	
O		3.35770501		0.00000000		1.17455858		-0.00005104		0.00000000		-0.00092563	
O		6.69229502		0.00000000		3.81719101		 0.00005104		0.00000000		 0.00092563	
O		8.38270502		2.87500049		1.17455858		-0.00002906		0.00000000		-0.00093909	
O		1.66729500		2.87500049		3.81719101		 0.00002906		0.00000000		 0.00093909	
O		0.91254000		1.55422547		1.12464123		-0.00033553		-0.00010967		-0.00001794	
O		9.13746003		4.19577451		3.86710936		 0.00033553		 0.00010967		 0.00001794	
O		9.13746003		1.55422547		3.86710936		 0.00033553		-0.00010967		 0.00001794	
O		0.91254000		4.19577451		1.12464123		-0.00033553		 0.00010967		-0.00001794	
O		5.93754002		4.42922496		1.12464123		-0.00031377		-0.00010342		-0.00003680	
O		4.11246001		1.32077502		3.86710936		 0.00031377		 0.00010342		 0.00003680	
O		4.11246001		4.42922496		3.86710936		 0.00031377		-0.00010342		 0.00003680	
O		5.93754002		1.32077502		1.12464123		-0.00031377		 0.00010342		-0.00003680	
