# total energy = -8762.00053185 eV	

CRYSTAL	
PRIMVEC	
		3.04799982		0.00000000		0.00000000	
		-1.52399991		2.63964709		0.00000000	
		0.00000000		0.00000000		12.98009924	
PRIMCOORD
   11 1	
H		0.00000000		1.75976391		6.09675249		0.00000000		0.00000000		-0.00056610	
H		1.52399991		0.87988196		6.88334767		0.00000000		-0.00000000		 0.00056610	
Mg		0.00000000		0.00000000		9.06919544		0.00000000		-0.00000000		-0.00063739	
Mg		0.00000000		0.00000000		3.91090380		0.00000000		0.00000000		 0.00063739	
Mg		1.52399991		0.87988196		11.68338716		0.00000000		-0.00000000		 0.00026049	
Mg		0.00000000		1.75976391		1.29671178		0.00000000		0.00000000		-0.00026049	
O		1.52399991		0.87988196		2.59342387		0.00000000		-0.00000000		 0.00012951	
O		0.00000000		1.75976391		10.38667538		0.00000000		0.00000000		-0.00012951	
O		0.00000000		1.75976391		5.05704683		0.00000000		0.00000000		-0.00010777	
O		1.52399991		0.87988196		7.92305241		0.00000000		-0.00000000		 0.00010777	
O		0.00000000		0.00000000		0.00000000		0.00000000		0.00000000		0.00000000	
