# total energy = -8762.05698097 eV	

CRYSTAL	
PRIMVEC	
		3.04799982		0.00000000		0.00000000	
		-1.52399991		2.63964709		0.00000000	
		0.00000000		0.00000000		12.67105035	
PRIMCOORD
   11 1	
H		0.00000000		1.75976391		5.95159272		0.00000000		0.00000000		-0.00028920	
H		1.52399991		0.87988196		6.71945763		0.00000000		-0.00000000		 0.00028920	
Mg		0.00000000		0.00000000		8.85326233		0.00000000		-0.00000000		-0.00036690	
Mg		0.00000000		0.00000000		3.81778680		0.00000000		-0.00000000		 0.00036690	
Mg		1.52399991		0.87988196		11.40521145		0.00000000		0.00000000		 0.00017287	
Mg		0.00000000		1.75976391		1.26583798		0.00000000		-0.00000000		-0.00017287	
O		1.52399991		0.87988196		2.53167596		0.00000000		0.00000000		 0.00009643	
O		0.00000000		1.75976391		10.13937347		0.00000000		0.00000000		-0.00009643	
O		0.00000000		1.75976391		4.93664078		0.00000000		0.00000000		 0.00000337	
O		1.52399991		0.87988196		7.73440865		0.00000000		-0.00000000		-0.00000337	
O		0.00000000		0.00000000		0.00000000		-0.00000000		0.00000000		0.00000000	
