# total energy = -8762.06177834 eV	

CRYSTAL	
PRIMVEC	
		3.04799982		0.00000000		0.00000000	
		-1.52399991		2.63964709		0.00000000	
		0.00000000		0.00000000		11.43484868	
PRIMCOORD
   11 1	
H		0.00000000		1.75976391		5.37094875		0.00000000		0.00000000		 0.00013360	
H		1.52399991		0.87988196		6.06390054		0.00000000		-0.00000000		-0.00013360	
Mg		0.00000000		0.00000000		7.98952959		0.00000000		0.00000000		 0.00016705	
Mg		0.00000000		0.00000000		3.44531970		0.00000000		-0.00000000		-0.00016705	
Mg		1.52399991		0.87988196		10.29250834		0.00000000		-0.00000000		-0.00004211	
Mg		0.00000000		1.75976391		1.14234187		0.00000000		0.00000000		 0.00004211	
O		1.52399991		0.87988196		2.28468282		0.00000000		0.00000000		-0.00000800	
O		0.00000000		1.75976391		9.15016647		0.00000000		-0.00000000		 0.00000800	
O		0.00000000		1.75976391		4.45501780		0.00000000		0.00000000		 0.00000157	
O		1.52399991		0.87988196		6.97983149		0.00000000		0.00000000		-0.00000157	
O		0.00000000		0.00000000		0.00000000		0.00000000		0.00000000		0.00000000	
