# total energy = -8762.14995486 eV	

CRYSTAL	
PRIMVEC	
		3.04799982		0.00000000		0.00000000	
		-1.52399991		2.63964709		0.00000000	
		0.00000000		0.00000000		11.74390062	
PRIMCOORD
   11 1	
H		0.00000000		1.75976391		5.51610974		0.00000000		0.00000000		-0.00022366	
H		1.52399991		0.87988196		6.22779057		0.00000000		0.00000000		 0.00022366	
Mg		0.00000000		0.00000000		8.20546239		0.00000000		0.00000000		 0.00081753	
Mg		0.00000000		0.00000000		3.53843670		0.00000000		-0.00000000		-0.00081753	
Mg		1.52399991		0.87988196		10.57068434		0.00000000		0.00000000		 0.00001036	
Mg		0.00000000		1.75976391		1.17321597		0.00000000		-0.00000000		-0.00001036	
O		1.52399991		0.87988196		2.34643073		0.00000000		-0.00000000		 0.00078617	
O		0.00000000		1.75976391		9.39746837		0.00000000		-0.00000000		-0.00078617	
O		0.00000000		1.75976391		4.57542385		0.00000000		0.00000000		 0.00030088	
O		1.52399991		0.87988196		7.16847555		0.00000000		-0.00000000		-0.00030088	
O		0.00000000		0.00000000		0.00000000		0.00000000		0.00000000		0.00000000	
