# total energy = -8762.15868388 eV	

CRYSTAL	
PRIMVEC	
		3.04799982		0.00000000		0.00000000	
		-1.52399991		2.63964709		0.00000000	
		0.00000000		0.00000000		12.05294951	
PRIMCOORD
   11 1	
H		0.00000000		1.75976391		5.66127073		0.00000000		0.00000000		 0.00061846	
H		1.52399991		0.87988196		6.39167969		0.00000000		-0.00000000		-0.00061846	
Mg		0.00000000		0.00000000		8.42139642		0.00000000		-0.00000000		-0.00020302	
Mg		0.00000000		0.00000000		3.63155371		0.00000000		0.00000000		 0.00020302	
Mg		1.52399991		0.87988196		10.84886035		0.00000000		-0.00000000		 0.00075818	
Mg		0.00000000		1.75976391		1.20409008		0.00000000		0.00000000		-0.00075818	
O		1.52399991		0.87988196		2.40817894		0.00000000		0.00000000		 0.00030067	
O		0.00000000		1.75976391		9.64477027		0.00000000		-0.00000000		-0.00030067	
O		0.00000000		1.75976391		4.69582959		0.00000000		0.00000000		-0.00070852	
O		1.52399991		0.87988196		7.35711962		0.00000000		-0.00000000		 0.00070852	
O		0.00000000		0.00000000		0.00000000		0.00000000		0.00000000		0.00000000	
