# total energy = -8761.91881069 eV	

CRYSTAL	
PRIMVEC	
		3.04799982		0.00000000		0.00000000	
		-1.52399991		2.63964709		0.00000000	
		0.00000000		0.00000000		13.59820008	
PRIMCOORD
   11 1	
H		0.00000000		1.75976391		6.38707447		0.00000000		0.00000000		-0.00052517	
H		1.52399991		0.87988196		7.21112561		0.00000000		-0.00000000		 0.00052517	
Mg		0.00000000		0.00000000		9.50106257		0.00000000		-0.00000000		-0.00032026	
Mg		0.00000000		0.00000000		4.09713781		0.00000000		0.00000000		 0.00032026	
Mg		1.52399991		0.87988196		12.23973917		0.00000000		-0.00000000		-0.00010952	
Mg		0.00000000		1.75976391		1.35845999		0.00000000		0.00000000		 0.00010952	
O		1.52399991		0.87988196		2.71691998		0.00000000		0.00000000		 0.00030318	
O		0.00000000		1.75976391		10.88127949		0.00000000		-0.00000000		-0.00030318	
O		0.00000000		1.75976391		5.29785863		0.00000000		-0.00000000		-0.00000915	
O		1.52399991		0.87988196		8.30034053		0.00000000		0.00000000		 0.00000915	
O		0.00000000		0.00000000		0.00000000		0.00000000		0.00000000		0.00000000	
