# total energy = -117598.622332 eV

CRYSTAL
PRIMVEC
		11.38209991		0.00000000		0.00000000
		0.00000000		14.09700391		0.00000000
		-2.63798377		0.00000000		9.76951814
PRIMECORD
   156 1
Si		8.79704974		0.01395559		0.72441033		 0.00013729		 0.00025838		 0.00010534
Si		-0.05292790		14.08304377		9.04511122		-0.00013729		-0.00025838		-0.00010534
Si		1.26606057		7.06245641		4.16034988		-0.00013729		 0.00025838		-0.00010534
Si		7.47806013		7.03454409		5.60917054		 0.00013729		-0.00025838		 0.00010534
Si		3.88604696		2.67335478		6.58055423		-0.00013568		 0.00020837		 0.00049549
Si		4.85807488		11.42364458		3.18896732		 0.00013568		-0.00020837		-0.00049549
Si		3.53908641		9.72185446		8.07372639		 0.00013568		 0.00020837		-0.00049549
Si		5.20503543		4.37514490		1.69579289		-0.00013568		-0.00020837		 0.00049549
Si		1.30272686		1.76917329		4.16914255		 0.00020586		-0.00005356		-0.00002765
Si		7.44139383		12.32782721		5.60037787		-0.00020586		 0.00005356		 0.00002765
Si		8.76038344		8.81767296		0.71561652		-0.00020586		-0.00005356		 0.00002765
Si		-0.01626161		5.27932639		9.05390276		 0.00020586		 0.00005356		-0.00002765
Si		7.38013537		1.73858275		5.59793641		 0.00024816		-0.00006579		-0.00025059
Si		1.36398646		12.35841661		4.17158515		-0.00024816		 0.00006579		 0.00025059
Si		0.04499686		8.78708243		9.05634649		-0.00024816		-0.00006579		 0.00025059
Si		8.69912384		5.30991693		0.71317506		 0.00024816		 0.00006579		-0.00025059
Mg		4.37206149		0.00000000		4.88476021		-0.00000000		-0.00000000		-0.00000000
Mg		5.69104996		7.04849968		0.00000000		0.00000000		-0.00000000		0.00000000
Mg		4.72540512		2.46006789		3.48176046		 0.00002366		 0.00038206		 0.00011605
Mg		4.01871672		11.63693261		6.28776110		-0.00002366		-0.00038206		-0.00011605
Mg		5.33770632		9.50856757		1.40300089		-0.00002366		 0.00038206		-0.00011605
Mg		3.40641551		4.58843293		8.36651953		 0.00002366		-0.00038206		 0.00011605
Mg		5.69104996		0.00000000		0.00000000		0.00000000		0.00000000		0.00000000
Mg		4.37206149		7.04849968		4.88476021		0.00000000		0.00000000		0.00000000
Mg		6.65602666		0.03510240		2.86383650		 0.00014288		-0.00025091		-0.00029093
Mg		2.08809403		14.06189924		6.90568392		-0.00014288		 0.00025091		 0.00029093
Mg		3.40708364		7.08360094		2.02092257		-0.00014288		-0.00025091		 0.00029093
Mg		5.33703819		7.01339842		7.74859785		 0.00014288		 0.00025091		-0.00029093
Mg		0.45333652		0.00493414		1.48887542		-0.00011346		 0.00018000		 0.00030071
Mg		8.29078532		14.09206636		8.28064614		 0.00011346		-0.00018000		-0.00030071
Mg		9.60977379		7.05343382		3.39588479		 0.00011346		 0.00018000		-0.00030071
Mg		-0.86565309		7.04356554		6.37363563		-0.00011346		-0.00018000		 0.00030071
Mg		-0.93351658		0.00493414		6.20091112		 0.00013073		-0.00016671		-0.00009927
Mg		9.67763842		14.09206636		3.56861044		-0.00013073		 0.00016671		 0.00009927
Mg		8.35864881		7.05343382		8.45337065		-0.00013073		-0.00016671		 0.00009927
Mg		0.38547189		7.04356554		1.31614977		 0.00013073		 0.00016671		-0.00009927
Mg		3.43359369		0.03904857		2.10484279		-0.00047403		-0.00001318		-0.00020592
Mg		5.31052814		14.05795079		7.66467763		 0.00047403		 0.00001318		 0.00020592
Mg		6.62951661		7.08754939		2.77991742		 0.00047403		-0.00001318		 0.00020592
Mg		2.11460408		7.00945111		6.98960414		-0.00047403		 0.00001318		-0.00020592
Mg		7.06397592		2.39564406		1.20761007		 0.00038073		-0.00020778		-0.00013451
Mg		1.68014591		11.70135643		8.56191035		-0.00038073		 0.00020778		 0.00013451
Mg		2.99913552		9.44414374		3.67715014		-0.00038073		-0.00020778		 0.00013451
Mg		5.74498631		4.65285561		6.09237142		 0.00038073		 0.00020778		-0.00013451
Mg		-1.76075850		2.43920450		9.47360176		 0.00067271		-0.00039397		-0.00024447
Mg		10.50488033		11.65779600		0.29591866		-0.00067271		 0.00039397		 0.00024447
Mg		9.18588959		9.48770418		5.18067887		-0.00067271		-0.00039397		 0.00024447
Mg		-0.44176889		4.60929632		4.58884155		 0.00067271		 0.00039397		-0.00024447
Mg		0.50410524		2.49798849		7.34638745		 0.00023029		-0.00037694		-0.00024568
Mg		8.24001660		11.59901087		2.42313411		-0.00023029		 0.00037694		 0.00024568
Mg		6.92102699		9.54648931		7.30789546		-0.00023029		-0.00037694		 0.00024568
Mg		1.82309371		4.55051119		2.46162610		 0.00023029		 0.00037694		-0.00024568
Mg		6.45435975		2.48008445		8.74235419		 0.00006271		-0.00038534		 0.00022313
Mg		2.28976208		11.61691491		1.02716736		-0.00006271		 0.00038534		-0.00022313
Mg		0.97077247		9.52858640		5.91192757		-0.00006271		-0.00038534		-0.00022313
Mg		7.77334936		4.56841523		3.85759285		 0.00006271		 0.00038534		 0.00022313
Mg		3.87568925		2.37633092		0.44060450		 0.00006790		-0.00016258		 0.00010874
Mg		4.86843145		11.72066844		9.32891592		-0.00006790		 0.00016258		-0.00010874
Mg		6.18742219		9.42483060		4.44415457		-0.00006790		-0.00016258		-0.00010874
Mg		2.55669964		4.67216876		5.32536585		 0.00006790		 0.00016258		 0.00010874
Mg		10.10992716		2.50221694		1.94237584		-0.00002335		 0.00001133		 0.00034608
Mg		-1.36580646		11.59478242		7.82714458		 0.00002335		-0.00001133		-0.00034608
Mg		-0.04681685		9.55071776		2.94238437		 0.00002335		 0.00001133		-0.00034608
Mg		8.79093755		4.54628160		6.82713605		-0.00002335		-0.00001133		 0.00034608
O		3.90644823		1.06009350		6.54167071		-0.00038698		 0.00035053		 0.00046229
O		4.83767360		13.03690472		3.22784971		 0.00038698		-0.00035053		-0.00046229
O		3.51868399		8.10859546		8.11260992		 0.00038698		 0.00035053		-0.00046229
O		5.22543784		5.98840618		1.65691050		-0.00038698		-0.00035053		 0.00046229
O		6.15187248		1.22502923		4.50667986		-0.00013756		 0.00030175		 0.00022949
O		2.59224935		12.87197126		5.26284056		 0.00013756		-0.00030175		-0.00022949
O		3.91123896		8.27352891		0.37808149		 0.00013756		 0.00030175		-0.00022949
O		4.83288287		5.82347044		9.39144121		-0.00013756		-0.00030175		 0.00022949
O		7.40395469		3.38328026		5.59402780		-0.00040605		-0.00008658		 0.00040034
O		1.34016714		10.71372024		4.17549262		 0.00040605		 0.00008658		-0.00040034
O		0.02117754		10.43177994		9.06025397		 0.00040605		-0.00008658		-0.00040034
O		8.72294430		3.66521942		0.70926645		-0.00040605		 0.00008658		 0.00040034
O		6.98936170		1.20952340		7.12100366		 0.00005968		-0.00003193		-0.00021443
O		1.75476013		12.88747824		2.64851676		-0.00005968		 0.00003193		 0.00021443
O		0.43577052		8.25802308		7.53327697		-0.00005968		-0.00003193		 0.00021443
O		8.30835131		5.83897742		2.23624345		 0.00005968		 0.00003193		-0.00021443
O		1.32855057		3.41852265		4.15106891		 0.00034555		-0.00006265		 0.00011473
O		7.41557126		10.67847671		5.61845151		-0.00034555		 0.00006265		-0.00011473
O		8.73455973		10.46702347		0.73369130		-0.00034555		-0.00006265		-0.00011473
O		0.00956210		3.62997703		9.03583026		 0.00034555		 0.00006265		 0.00011473
O		2.93835397		1.23348727		3.75345005		-0.00023116		-0.00017864		 0.00007125
O		5.80576673		12.86351322		6.01607151		 0.00023116		 0.00017864		-0.00007125
O		7.12475747		8.28198695		1.13131016		 0.00023116		-0.00017864		-0.00007125
O		1.61936550		5.81501241		8.63821026		-0.00023116		 0.00017864		 0.00007125
O		0.86054480		1.22784858		5.68195338		-0.00010745		 0.00040181		 0.00023413
O		7.88357589		12.86915078		4.08756704		 0.00010745		-0.00040181		-0.00023413
O		6.56458743		8.27634940		8.97232839		 0.00010745		 0.00040181		-0.00023413
O		2.17953555		5.82065110		0.79719317		-0.00010745		-0.00040181		 0.00023413
O		0.08089372		1.24194645		3.09791508		-0.00041222		 0.00047354		 0.00038107
O		8.66322697		12.85505405		6.67160648		 0.00041222		-0.00047354		-0.00038107
O		9.98221544		8.29044613		1.78684513		 0.00041222		 0.00047354		-0.00038107
O		-1.23809475		5.80655437		7.98267529		-0.00041222		-0.00047354		 0.00038107
O		4.28224761		3.40160544		5.17100750		 0.00024602		 0.00035414		 0.00061275
O		4.46187422		10.69539392		4.59851406		-0.00024602		-0.00035414		-0.00061275
O		3.14288348		10.45010625		9.48327426		-0.00024602		 0.00035414		-0.00061275
O		5.60123722		3.64689424		0.28624729		 0.00024602		-0.00035414		 0.00061275
O		5.00401161		3.36354369		7.61534191		 0.00057861		-0.00022793		-0.00018168
O		3.74010909		10.73345566		2.15417851		-0.00057861		 0.00022793		 0.00018168
O		2.42111948		10.41204451		7.03893985		-0.00057861		-0.00022793		 0.00018168
O		6.32300235		3.68495598		2.73058057		 0.00057861		 0.00022793		-0.00018168
O		5.23932970		1.19965512		1.68133421		 0.00009823		 0.00009690		-0.00027765
O		3.50479100		12.89734538		8.08818621		-0.00009823		-0.00009690		 0.00027765
O		4.82378061		8.24815480		3.20342600		-0.00009823		 0.00009690		 0.00027765
O		3.92034123		5.84884456		6.56609442		 0.00009823		-0.00009690		-0.00027765
O		5.03013467		1.04881725		9.47448045		-0.00024235		 0.00024573		-0.00003551
O		3.71398717		13.04818324		0.29503996		 0.00024235		-0.00024573		 0.00003551
O		2.39499756		8.09731693		5.17980017		 0.00024235		 0.00024573		 0.00003551
O		6.34912427		5.99968242		4.58972138		-0.00024235		-0.00024573		-0.00003551
O		8.44548399		1.06714244		2.14147950		-0.00013221		 0.00020160		-0.00035337
O		0.29863671		13.02985692		7.62804206		 0.00013221		-0.00020160		 0.00035337
O		1.61762745		8.11564325		2.74328071		 0.00013221		 0.00020160		 0.00035337
O		7.12649438		5.98135724		7.02623971		-0.00013221		-0.00020160		-0.00035337
O		-1.18614343		1.00652592		8.03054612		-0.00008613		-0.00003169		-0.00010952
O		9.93026526		13.09047343		1.73897430		 0.00008613		 0.00003169		 0.00010952
O		8.61127452		8.05502560		6.62373451		 0.00008613		-0.00003169		 0.00010952
O		0.13284618		6.04197375		3.14578591		-0.00008613		 0.00003169		-0.00010952
O		10.37744520		1.12212139		0.27257056		-0.00041315		 0.00023434		-0.00018586
O		-1.63332451		12.97487910		9.49695100		 0.00041315		-0.00023434		 0.00018586
O		-0.31433376		8.17062107		4.61219079		 0.00041315		 0.00023434		 0.00018586
O		9.05845560		5.92637942		5.15732963		-0.00041315		-0.00023434		-0.00018586
O		1.45993187		1.03472052		8.63430278		-0.00030369		-0.00020046		 0.00006581
O		7.28418996		13.06227997		1.13521764		 0.00030369		 0.00020046		-0.00006581
O		5.96520149		8.08322020		6.01997785		 0.00030369		-0.00020046		-0.00006581
O		2.77892148		6.01378029		3.74954143		-0.00030369		 0.00020046		 0.00006581
O		2.18902253		1.02767045		0.69461313		-0.00040461		-0.00015023		-0.00039837
O		6.55509931		13.06932891		9.07490842		 0.00040461		 0.00015023		 0.00039837
O		7.87408778		8.07617127		4.19014821		 0.00040461		-0.00015023		 0.00039837
O		0.87003292		6.02082923		5.57937334		-0.00040461		 0.00015023		-0.00039837
O		2.37853677		3.37200173		6.99009243		-0.00035505		-0.00020710		 0.00002353
O		6.36558507		10.72499763		2.77942912		 0.00035505		 0.00020710		-0.00002353
O		5.04659546		10.42050141		7.66418933		 0.00035505		-0.00020710		-0.00002353
O		3.69752751		3.67649795		2.10533222		-0.00035505		 0.00020710		 0.00002353
O		8.98175049		1.20106422		5.16319141		 0.00031180		-0.00001688		-0.00009178
O		-0.23762865		12.89593627		4.60632901		-0.00031180		 0.00001688		 0.00009178
O		-1.55661940		8.24956504		9.49108921		-0.00031180		-0.00001688		 0.00009178
O		10.30074010		5.84743546		0.27843234		 0.00031180		 0.00001688		-0.00009178
O		-0.91183710		3.49182679		6.22220817		 0.00024452		-0.00033701		 0.00027939
O		9.65595893		10.60517371		3.54731339		-0.00024452		 0.00033701		-0.00027939
O		8.33696932		10.54032647		8.43207246		-0.00024452		-0.00033701		-0.00027939
O		0.40715251		3.55667289		1.33744682		 0.00024452		 0.00033701		 0.00027939
O		9.53206022		3.49746548		3.55512948		 0.00001550		-0.00081640		 0.00021289
O		-0.78793839		10.59953501		6.21439208		-0.00001550		 0.00081640		-0.00021289
O		0.53105122		10.54596630		1.32963187		-0.00001550		-0.00081640		-0.00021289
O		8.21306948		3.55103534		8.43988855		 0.00001550		 0.00081640		 0.00021289
H		-1.29823549		2.72072139		5.86171316		 0.00081505		 0.00014728		-0.00060905
H		10.04235732		11.37627911		3.90780840		-0.00081505		-0.00014728		 0.00060905
H		8.72336658		9.76922107		8.79256860		-0.00081505		 0.00014728		 0.00060905
H		0.02075526		4.32777943		0.97695181		 0.00081505		-0.00014728		-0.00060905
H		9.35136939		2.87578771		4.06412105		 0.00042842		 0.00072442		-0.00021689
H		-0.60724755		11.22121165		5.70540051		-0.00042842		-0.00072442		 0.00021689
H		0.71174206		9.92428738		0.82064030		-0.00042842		 0.00072442		 0.00021689
H		8.03237864		4.17271197		8.94888126		 0.00042842		-0.00072442		-0.00021689
