# total energy = -117602.772214 eV

CRYSTAL
PRIMVEC
		10.85269993		0.00000000		0.00000000
		0.00000000		14.09699519		0.00000000
		-2.51528685		0.00000000		9.76952451
PRIMECORD
   156 1
Si		8.38788464		0.01395549		0.72441012		 0.00003402		-0.00000320		 0.00005432
Si		-0.05046614		14.08304405		9.04511113		-0.00003402		 0.00000320		-0.00005432
Si		1.20717512		7.06245634		4.16034996		-0.00003402		-0.00000320		-0.00005432
Si		7.13024447		7.03454428		5.60917129		 0.00003402		 0.00000320		 0.00005432
Si		3.70529951		2.67335534		6.58055414		 0.00003637		 0.00020455		-0.00002375
Si		4.63211791		11.42364528		3.18896711		-0.00003637		-0.00020455		 0.00002375
Si		3.37447666		9.72185511		8.07372720		-0.00003637		 0.00020455		 0.00002375
Si		4.96294076		4.37514551		1.69579297		 0.00003637		-0.00020455		-0.00002375
Si		1.24213492		1.76917350		4.16914282		 0.00001725		-0.00004670		-0.00015417
Si		7.09528250		12.32782712		5.60037843		-0.00001725		 0.00004670		 0.00015417
Si		8.35292376		8.81767327		0.71561727		-0.00001725		-0.00004670		 0.00015417
Si		-0.01550634		5.27932735		9.05390290		 0.00001725		 0.00004670		-0.00015417
Si		7.03687327		1.73858299		5.59793549		 0.00003449		 0.00000743		-0.00023749
Si		1.30054632		12.35841654		4.17158467		-0.00003449		-0.00000743		 0.00023749
Si		0.04290398		8.78708276		9.05634584		-0.00003449		 0.00000743		 0.00023749
Si		8.29451344		5.30991677		0.71317541		 0.00003449		-0.00000743		-0.00023749
Mg		4.16870871		0.00000000		4.88476008		0.00000000		-0.00000000		0.00000000
Mg		5.42634996		7.04849977		0.00000000		0.00000000		-0.00000000		0.00000000
Mg		4.50561884		2.46006831		3.48175994		-0.00011309		-0.00019105		-0.00006881
Mg		3.83179966		11.63693339		6.28776132		 0.00011309		 0.00019105		 0.00006881
Mg		5.08944092		9.50856808		1.40300123		 0.00011309		-0.00019105		 0.00006881
Mg		3.24797758		4.58843254		8.36652002		-0.00011309		 0.00019105		-0.00006881
Mg		5.42634996		0.00000000		0.00000000		0.00000000		0.00000000		0.00000000
Mg		4.16870871		7.04849977		4.88476008		0.00000000		0.00000000		0.00000000
Mg		6.34644403		0.03510197		2.86383650		 0.00023248		 0.00005768		 0.00018214
Mg		1.99097447		14.06189865		6.90568366		-0.00023248		-0.00005768		-0.00018214
Mg		3.24861464		7.08360065		2.02092249		-0.00023248		 0.00005768		-0.00018214
Mg		5.08880278		7.01339779		7.74859767		 0.00023248		-0.00005768		 0.00018214
Mg		0.43225110		0.00493364		1.48887539		-0.00001527		-0.00024442		-0.00006716
Mg		7.90516740		14.09206590		8.28064586		 0.00001527		 0.00024442		 0.00006716
Mg		9.16280757		7.05343449		3.39588469		 0.00001527		-0.00024442		 0.00006716
Mg		-0.82539016		7.04356613		6.37363547		-0.00001527		 0.00024442		-0.00006716
Mg		-0.89009829		0.00493364		6.20091150		-0.00007416		 0.00009268		 0.00017726
Mg		9.22751571		14.09206590		3.56860975		 0.00007416		-0.00009268		-0.00017726
Mg		7.96987446		7.05343449		8.45337092		 0.00007416		 0.00009268		-0.00017726
Mg		0.36754296		7.04356613		1.31615033		-0.00007416		-0.00009268		 0.00017726
Mg		3.27389166		0.03904910		2.10484317		 0.00018139		 0.00015687		 0.00003897
Mg		5.06352576		14.05795043		7.66467808		-0.00018139		-0.00015687		-0.00003897
Mg		6.32116701		7.08754887		2.77991692		-0.00018139		 0.00015687		-0.00003897
Mg		2.01625149		7.00945067		6.98960433		 0.00018139		-0.00015687		 0.00003897
Mg		6.73541891		2.39564452		1.20761031		 0.00021451		-0.00002621		 0.00004503
Mg		1.60199959		11.70135610		8.56190986		-0.00021451		 0.00002621		-0.00004503
Mg		2.85964085		9.44414428		3.67714977		-0.00021451		-0.00002621		-0.00004503
Mg		5.47777765		4.65285633		6.09237148		 0.00021451		 0.00002621		 0.00004503
Mg		-1.67886276		2.43920400		9.47360177		-0.00007448		 0.00030115		-0.00011610
Mg		10.01628126		11.65779553		0.29591948		 0.00007448		-0.00030115		 0.00011610
Mg		8.75864000		9.48770377		5.18067848		 0.00007448		 0.00030115		 0.00011610
Mg		-0.42122150		4.60929577		4.58884168		-0.00007448		-0.00030115		-0.00011610
Mg		0.48065848		2.49798765		7.34638684		 0.00021971		 0.00028232		-0.00005081
Mg		7.85676002		11.59901080		2.42313441		-0.00021971		-0.00028232		 0.00005081
Mg		6.59911876		9.54648850		7.30789449		-0.00021971		 0.00028232		 0.00005081
Mg		1.73829865		4.55051103		2.46162568		 0.00021971		-0.00028232		-0.00005081
Mg		6.15415698		2.48008503		8.74235444		 0.00005397		 0.00004764		-0.00025836
Mg		2.18326152		11.61691450		1.02716681		-0.00005397		-0.00004764		 0.00025836
Mg		0.92562027		9.52858589		5.91192798		-0.00005397		 0.00004764		 0.00025836
Mg		7.41179824		4.56841473		3.85759327		 0.00005397		-0.00004764		-0.00025836
Mg		3.69542355		2.37633105		0.44060551		-0.00005098		-0.00011944		 0.00022885
Mg		4.64199278		11.72066848		9.32891574		 0.00005098		 0.00011944		-0.00022885
Mg		5.89963512		9.42483082		4.44415457		 0.00005098		-0.00011944		-0.00022885
Mg		2.43778338		4.67216871		5.32536559		-0.00005098		 0.00011944		 0.00022885
Mg		9.63969800		2.50221695		1.94237608		 0.00027160		 0.00024425		 0.00019606
Mg		-1.30227950		11.59478150		7.82714517		-0.00027160		-0.00024425		-0.00019606
Mg		-0.04463933		9.55071780		2.94238400		-0.00027160		 0.00024425		-0.00019606
Mg		8.38205674		4.54628174		6.82713616		 0.00027160		-0.00024425		 0.00019606
O		3.72475297		1.06009390		6.54167108		 0.00018599		-0.00014309		-0.00023548
O		4.61266553		13.03690455		3.22785017		-0.00018599		 0.00014309		 0.00023548
O		3.35502536		8.10859475		8.11261025		-0.00018599		-0.00014309		 0.00023548
O		4.98239423		5.98840587		1.65691100		 0.00018599		 0.00014309		-0.00023548
O		5.86573889		1.22502889		4.50668023		-0.00026356		-0.00012130		 0.00004624
O		2.47167853		12.87197064		5.26284102		 0.00026356		 0.00012130		-0.00004624
O		3.72931979		8.27352866		0.37808093		 0.00026356		-0.00012130		-0.00004624
O		4.60809763		5.82347087		9.39144140		-0.00026356		 0.00012130		 0.00004624
O		7.05958471		3.38328037		5.59402743		 0.00003974		-0.00004208		 0.00002959
O		1.27783379		10.71372025		4.17549273		-0.00003974		 0.00004208		-0.00002959
O		0.02019253		10.43178013		9.06025390		-0.00003974		-0.00004208		-0.00002959
O		8.31722597		3.66522049		0.70926735		 0.00003974		 0.00004208		 0.00002959
O		6.66427512		1.20952255		7.12100448		-0.00006046		 0.00036381		-0.00012538
O		1.67314338		12.88747806		2.64851677		 0.00006046		-0.00036381		 0.00012538
O		0.41550213		8.25802341		7.53327685		 0.00006046		 0.00036381		 0.00012538
O		7.92191637		5.83897830		2.23624332		-0.00006046		-0.00036381		-0.00012538
O		1.26675752		3.41852342		4.15106873		-0.00006854		-0.00010684		 0.00006773
O		7.07065989		10.67847720		5.61845144		 0.00006854		 0.00010684		-0.00006773
O		8.32830115		10.46702319		0.73369135		 0.00006854		-0.00010684		-0.00006773
O		0.00911735		3.62997743		9.03582990		-0.00006854		 0.00010684		 0.00006773
O		2.80168635		1.23348749		3.75344968		 0.00017922		 0.00018811		 0.00006908
O		5.53573216		12.86351313		6.01607048		-0.00017922		-0.00018811		-0.00006908
O		6.79337341		8.28198725		1.13131040		-0.00017922		 0.00018811		-0.00006908
O		1.54404509		5.81501228		8.63820976		 0.00017922		-0.00018811		 0.00006908
O		0.82051946		1.22784951		5.68195275		-0.00012124		 0.00009364		-0.00014257
O		7.51689795		12.86915111		4.08756741		 0.00012124		-0.00009364		 0.00014257
O		6.25925670		8.27634928		8.97232750		 0.00012124		 0.00009364		 0.00014257
O		2.07816072		5.82065134		0.79719267		-0.00012124		-0.00009364		-0.00014257
O		0.07713231		1.24194608		3.09791513		-0.00001973		-0.00015997		-0.00005335
O		8.26028619		12.85505345		6.67160612		 0.00001973		 0.00015997		 0.00005335
O		9.51792745		8.29044585		1.78684495		 0.00001973		-0.00015997		 0.00005335
O		-1.18050895		5.80655369		7.98267522		-0.00001973		 0.00015997		-0.00005335
O		4.08307331		3.40160623		5.17100656		 0.00008272		-0.00035637		-0.00005676
O		4.25434519		10.69539438		4.59851361		-0.00008272		 0.00035637		 0.00005676
O		2.99670394		10.45010600		9.48327369		-0.00008272		-0.00035637		 0.00005676
O		5.34071348		3.64689353		0.28624647		 0.00008272		 0.00035637		-0.00005676
O		4.77126797		3.36354365		7.61534171		 0.00017211		 0.00008175		-0.00026590
O		3.56615053		10.73345589		2.15417846		-0.00017211		-0.00008175		 0.00026590
O		2.30851036		10.41204450		7.03893962		-0.00017211		 0.00008175		 0.00026590
O		6.02890923		3.68495612		2.73058054		 0.00017211		-0.00008175		-0.00026590
O		4.99563995		1.19965528		1.68133392		 0.00003793		-0.00004700		 0.00005845
O		3.34177747		12.89734534		8.08818625		-0.00003793		 0.00004700		-0.00005845
O		4.59941873		8.24815505		3.20342617		-0.00003793		-0.00004700		-0.00005845
O		3.73799869		5.84884449		6.56609508		 0.00003793		 0.00004700		 0.00005845
O		4.79617492		1.04881686		9.47448084		-0.00009061		 0.00011562		 0.00027530
O		3.54124250		13.04818267		0.29504041		 0.00009061		-0.00011562		-0.00027530
O		2.28360233		8.09731663		5.17980050		 0.00009061		 0.00011562		-0.00027530
O		6.05381617		5.99968291		4.58972075		-0.00009061		-0.00011562		 0.00027530
O		8.05267079		1.06714273		2.14147863		-0.00007634		 0.00006418		 0.00008766
O		0.28474663		13.02985681		7.62804154		 0.00007634		-0.00006418		-0.00008766
O		1.54238788		8.11564249		2.74328146		 0.00007634		 0.00006418		-0.00008766
O		6.79502953		5.98135704		7.02623979		-0.00007634		-0.00006418		 0.00008766
O		-1.13097397		1.00652606		8.03054647		-0.00001604		 0.00008166		-0.00004354
O		9.46839247		13.09047348		1.73897369		 0.00001604		-0.00008166		 0.00004354
O		8.21075122		8.05502582		6.62373486		 0.00001604		 0.00008166		 0.00004354
O		0.12666729		6.04197371		3.14578639		-0.00001604		-0.00008166		-0.00004354
O		9.89477335		1.12212142		0.27256990		 0.00007089		-0.00040919		 0.00007669
O		-1.55735484		12.97487920		9.49695135		-0.00007089		 0.00040919		-0.00007669
O		-0.29971359		8.17062119		4.61219127		-0.00007089		-0.00040919		-0.00007669
O		8.63713209		5.92637943		5.15732998		 0.00007089		 0.00040919		 0.00007669
O		1.39202807		1.03472029		8.63430279		 0.00012467		 0.00006457		 0.00000343
O		6.94539044		13.06228033		1.13521846		-0.00012467		-0.00006457		-0.00000343
O		5.68775027		8.08322005		6.01997746		-0.00012467		 0.00006457		-0.00000343
O		2.64966932		6.01377948		3.74954162		 0.00012467		-0.00006457		 0.00000343
O		2.08720644		1.02767146		0.69461295		 0.00016173		 0.00002581		-0.00006708
O		6.25021097		13.06932916		9.07490830		-0.00016173		-0.00002581		 0.00006708
O		7.50785223		8.07617123		4.19014822		-0.00016173		 0.00002581		 0.00006708
O		0.82956627		6.02082939		5.57937303		 0.00016173		-0.00002581		-0.00006708
O		2.26790824		3.37200224		6.99009162		 0.00007124		 0.00030426		-0.00008747
O		6.06951135		10.72499838		2.77942854		-0.00007124		-0.00030426		 0.00008747
O		4.81187009		10.42050201		7.66418863		-0.00007124		 0.00030426		 0.00008747
O		3.52554949		3.67649753		2.10533154		 0.00007124		-0.00030426		-0.00008747
O		8.56399466		1.20106396		5.16319153		 0.00019849		 0.00002320		 0.00019931
O		-0.22657724		12.89593557		4.60632864		-0.00019849		-0.00002320		-0.00019931
O		-1.48421850		8.24956481		9.49108872		-0.00019849		 0.00002320		-0.00019931
O		9.82163592		5.84743472		0.27843253		 0.00019849		-0.00002320		 0.00019931
O		-0.86942607		3.49182690		6.22220775		 0.00016871		 0.00021186		-0.00013582
O		9.20684349		10.60517372		3.54731350		-0.00016871		-0.00021186		 0.00013582
O		7.94920332		10.54032667		8.43207250		-0.00016871		 0.00021186		 0.00013582
O		0.38821518		3.55667287		1.33744658		 0.00016871		-0.00021186		-0.00013582
O		9.08870751		3.49746596		3.55512853		 0.00018518		-0.00042421		-0.00018817
O		-0.75129009		10.59953466		6.21439164		-0.00018518		 0.00042421		 0.00018817
O		0.50635116		10.54596573		1.32963155		-0.00018518		-0.00042421		 0.00018817
O		7.83106734		3.55103489		8.43988861		 0.00018518		 0.00042421		-0.00018817
H		-1.23785244		2.72072086		5.86171253		-0.00012196		 0.00019529		 0.00044225
H		9.57526986		11.37627867		3.90780763		 0.00012196		-0.00019529		-0.00044225
H		8.31762860		9.76922063		8.79256880		 0.00012196		 0.00019529		-0.00044225
H		0.01978881		4.32777890		0.97695245		-0.00012196		-0.00019529		 0.00044225
H		8.91642090		2.87578750		4.06412124		 0.00006728		 0.00038020		-0.00040247
H		-0.57900348		11.22121204		5.70540001		-0.00006728		-0.00038020		 0.00040247
H		0.67863778		9.92428835		0.82063993		-0.00006728		 0.00038020		 0.00040247
H		7.65877964		4.17271227		8.94888132		 0.00006728		-0.00038020		-0.00040247
