# total energy = -9073.56033229 eV

CRYSTAL
PRIMVEC
		5.11310074		-0.61357085		0.00000000
		-0.62277351		5.18980161		0.00000000
		-0.00383659		0.00046348		7.33029846
PRIMECORD
   28 1
Mg		3.55977283		2.20197187		1.83990507		-0.00026614		 0.00004930		 0.00060888
Mg		1.22066379		-0.07486909		5.49039390		-0.00016493		 0.00031404		-0.00004034
Si		1.26921904		-0.08580980		1.83257487		 0.00033142		 0.00023914		 0.00002237
Si		3.51246178		2.20253371		5.49772410		-0.00000569		 0.00018840		 0.00003146
O		1.24575302		4.84792968		3.53320408		-0.00013991		 0.00028598		 0.00033838
O		2.95799189		2.08492813		3.79709490		-0.00023667		-0.00088612		-0.00034949
O		4.06632502		2.32532771		7.16903199		 0.00035609		 0.00017117		 0.00008131
O		0.66927193		0.17544125		0.16126699		 0.00053660		 0.00014994		 0.00056621
O		4.13483310		3.61121813		5.07989700		-0.00007135		 0.00029064		-0.00020345
O		0.28563887		1.51558773		2.25040197		-0.00002377		-0.00044596		-0.00011794
O		1.88616197		3.15471977		5.87889969		-0.00046307		 0.00053073		 0.00012539
O		2.71117775		0.49818379		1.45139878		 0.00009572		-0.00040093		-0.00063850
O		4.32348199		3.77272304		2.34569613		 0.00012330		-0.00027996		-0.00025646
O		0.05214979		1.72775002		4.98460285		 0.00018389		-0.00014706		 0.00014152
O		1.55947417		3.41898499		1.31945414		-0.00014658		-0.00020264		-0.00007372
O		2.98306206		0.69062087		6.01084484		-0.00017269		-0.00010282		 0.00008674
H		1.83472079		3.88723206		3.58451599		-0.00018195		 0.00048290		 0.00012555
H		2.58575118		1.23957483		3.74578298		 0.00054272		 0.00062773		 0.00007045
H		4.48481490		3.03725374		7.22034391		-0.00039298		 0.00013923		 0.00020014
H		0.06519522		1.01007476		0.10995404		-0.00009280		 0.00013194		-0.00016932
H		1.22160209		2.64623384		5.67365098		-0.00007307		-0.00014685		-0.00066756
H		3.51897574		-0.18698397		1.65664800		 0.00024210		-0.00041077		 0.00007649
H		3.36758707		4.46031790		5.35844875		 0.00029695		-0.00007451		 0.00045072
H		0.86854277		2.20267018		1.97184971		 0.00041951		-0.00042014		-0.00012984
H		4.24843576		3.84822503		3.26198305		-0.00032418		-0.00042061		 0.00006798
H		0.11100408		1.78718314		4.06831593		-0.00047995		 0.00008507		 0.00005784
H		1.67480974		3.34376417		0.38850578		-0.00006556		 0.00004101		-0.00008826
H		2.88267220		0.64128698		6.94179268		 0.00017298		 0.00021118		-0.00031658
