# total energy = -9074.53658373 eV

CRYSTAL
PRIMVEC
		5.11309853		0.40904686		0.00000000
		0.41518166		5.18979898		0.00000000
		-0.00383682		-0.00030777		7.33029714
PRIMECORD
   28 1
Mg		4.09328411		2.97794678		1.83990502		 0.00015307		 0.00007379		-0.00041922
Mg		1.23519481		0.17100821		5.49039418		 0.00078466		-0.00001110		 0.00001676
Si		1.28271288		0.16965301		1.83257506		-0.00001102		 0.00019246		 0.00028852
Si		4.04493610		2.96892307		5.49772414		-0.00001855		-0.00062577		 0.00034047
O		2.25984013		5.21877106		3.53320410		 0.00012301		 0.00033508		 0.00024712
O		3.45309872		2.73593897		3.79709510		-0.00062283		 0.00023468		 0.00046755
O		4.63720281		3.20709816		7.16903179		-0.00018715		-0.00008686		 0.00061066
O		0.72116995		0.31552288		0.16126690		 0.00018102		-0.00071534		 0.00039270
O		4.96831507		4.53820316		5.07989672		-0.00070617		-0.00018060		-0.00028390
O		0.60014091		1.61045612		2.25040197		-0.00015393		 0.00041658		 0.00018341
O		2.57225406		3.61428304		5.87889969		-0.00012347		-0.00008741		-0.00023827
O		2.87829005		1.06047289		1.45139899		 0.00049258		-0.00016460		-0.00061048
O		5.19432981		4.74192076		2.34569611		 0.00070744		-0.00031030		 0.00007094
O		0.40401898		1.78040408		4.98460308		 0.00023119		-0.00012006		-0.00007097
O		2.29123587		3.81869105		1.31945400		-0.00045331		-0.00014869		-0.00015838
O		3.19584316		1.31276675		6.01084520		-0.00010078		 0.00030755		 0.00019952
H		2.66820323		4.35419389		3.58451589		 0.00016338		 0.00026400		-0.00010726
H		2.90025275		1.79446489		3.74578279		-0.00033440		-0.00024225		-0.00034912
H		5.21034904		4.02128120		7.22034410		-0.00016644		-0.00010793		-0.00048354
H		0.27174879		1.04790013		0.10995407		-0.00052157		 0.00045965		-0.00009213
H		1.78832803		2.95856213		5.67365096		 0.00014826		 0.00029953		-0.00003790
H		3.56672291		0.52254075		1.65664823		-0.00004371		 0.00027930		 0.00021000
H		4.35468683		5.25228679		5.35844919		 0.00064843		 0.00011024		-0.00017777
H		1.33666274		2.43255285		1.97185001		 0.00041365		-0.00028226		 0.00032180
H		5.13277710		4.80403310		3.26198313		-0.00013598		 0.00015037		 0.00004856
H		0.47636608		1.85322719		4.06831607		-0.00029774		 0.00016724		-0.00016849
H		2.39411593		3.76504280		0.38850603		-0.00017656		-0.00005184		-0.00008346
H		3.08299916		1.24186102		6.94179317		 0.00000691		-0.00015546		-0.00011712
