# total energy = -9073.01771764 eV

CRYSTAL
PRIMVEC
		5.11310166		0.81809854		0.00000000
		0.83036554		5.18980018		0.00000000
		-0.00383700		-0.00061620		7.33030090
PRIMECORD
   28 1
Mg		4.30668861		3.28833765		1.83990487		 0.00027375		-0.00014200		-0.00014255
Mg		1.24100813		0.26935824		5.49039395		-0.00031486		-0.00029669		 0.00046231
Si		1.28810999		0.27183805		1.83257471		-0.00003357		 0.00004724		 0.00006877
Si		4.25792457		3.27547879		5.49772360		-0.00002846		-0.00028015		 0.00003612
O		2.66547495		5.36710673		3.53320383		 0.00013526		 0.00013133		-0.00025931
O		3.65114204		2.99634372		3.79709500		 0.00029899		-0.00012830		 0.00037482
O		4.86555372		3.55980598		7.16903154		-0.00052942		-0.00008902		 0.00038779
O		0.74192871		0.37155596		0.16126676		 0.00082925		-0.00071108		-0.00015174
O		5.30170794		4.90899671		5.07989688		-0.00017623		-0.00000265		-0.00034488
O		0.72594071		1.64840402		2.25040195		-0.00005595		-0.00004935		 0.00034950
O		2.84668995		3.79810784		5.87889950		 0.00019404		-0.00064933		-0.00009733
O		2.94513405		1.28538888		1.45139881		-0.00001579		 0.00002430		-0.00061641
O		5.54266877		5.12959971		2.34569567		 0.00002098		-0.00008360		-0.00026112
O		0.54476609		1.80146500		4.98460264		 0.00013483		-0.00021695		-0.00008376
O		2.58394109		3.97857357		1.31945375		 0.00005084		-0.00019701		 0.00024134
O		3.28095570		1.56162575		6.01084456		-0.00019562		 0.00029572		-0.00007103
H		3.00159486		4.54097897		3.58451603		 0.00022193		 0.00000784		 0.00027890
H		3.02605378		2.01642176		3.74578280		 0.00092257		-0.00010189		-0.00044384
H		5.50056174		4.41489193		7.22034374		-0.00006927		 0.00042164		 0.00014701
H		0.35436973		1.06303101		0.10995405		-0.00026430		 0.00076301		 0.00028940
H		2.01501900		3.08349275		5.67365070		-0.00025308		 0.00028102		 0.00000710
H		3.58582092		0.80635091		1.65664813		-0.00020076		-0.00022157		-0.00028818
H		4.74952676		5.56907466		5.35844889		 0.00007349		 0.00005060		 0.00026135
H		1.52391081		2.52450595		1.97184994		-0.00040359		 0.00028566		-0.00015782
H		5.48651398		5.18635568		3.26198302		-0.00004115		-0.00014835		 0.00030845
H		0.62251111		1.87964498		4.06831581		-0.00054533		 0.00021033		-0.00036691
H		2.68183888		3.93355384		0.38850606		 0.00002434		 0.00030251		 0.00014621
H		3.16312882		1.48209013		6.94179277		-0.00005289		 0.00049675		-0.00007421
