# total energy = -18366.4769002 eV	

CRYSTAL	
PRIMVEC	
		4.81499869		0.38519893		0.00000000	
		0.88639952		11.08000120		0.00000000	
		0.00000000		0.00000000		6.37000056	
PRIMCOORD
   28 1	
Mg		0.00000000		0.00000000		0.00000000		0.00000000		0.00000000		0.00000000	
Mg		2.85070007		5.73260006		0.00000000		0.00000000		0.00000000		0.00000000	
Mg		0.00000000		0.00000000		3.18499980		0.00000000		0.00000000		0.00000000	
Mg		2.85070007		5.73260006		3.18499980		0.00000000		0.00000000		0.00000000	
Ca		4.96095017		3.22621215		1.59250014		 0.00036140		-0.00047078		0.00000000	
Ca		0.74044996		8.23898895		4.77749994		-0.00036140		 0.00047078		0.00000000	
Ca		2.54104012		2.87849216		4.77749994		-0.00032079		 0.00030270		0.00000000	
Ca		3.16036001		8.58670797		1.59250014		 0.00032079		-0.00030270		0.00000000	
Si		2.01667495		1.10811605		1.59250014		 0.00015135		 0.00028554		-0.00000000	
Si		3.68472519		10.35708408		4.77749994		-0.00015135		-0.00028554		-0.00000000	
Si		4.71491507		4.93495595		4.77749994		-0.00005201		 0.00007964		-0.00000000	
Si		0.98648506		6.53024515		1.59250014		 0.00005201		-0.00007964		0.00000000	
O		3.73804924		1.03665294		1.59250014		 0.00013235		-0.00042173		0.00000000	
O		1.96335090		10.42854719		4.77749994		-0.00013235		 0.00042173		0.00000000	
O		1.65497101		4.89933283		4.77749994		-0.00015111		-0.00013227		0.00000000	
O		4.04642913		6.56586826		1.59250014		 0.00015111		 0.00013227		0.00000000	
O		3.95513005		5.42462689		1.59250014		-0.00048251		 0.00072382		0.00000000	
O		1.74627008		6.04057324		4.77749994		 0.00048251		-0.00072382		0.00000000	
O		1.16824998		0.48978687		4.77749994		 0.00023894		 0.00013964		0.00000000	
O		4.53315016		10.97541325		1.59250014		-0.00023894		-0.00013964		0.00000000	
O		1.33936921		1.79153995		0.19110011		-0.00025646		 0.00015608		-0.00001979	
O		4.36203093		9.67366017		6.17889996		 0.00025646		-0.00015608		 0.00001979	
O		3.91883117		4.13366006		6.17889996		-0.00010983		 0.00010218		 0.00002967	
O		1.78256897		7.33154007		0.19110011		 0.00010983		-0.00010218		-0.00002967	
O		4.36203093		9.67366017		3.37609991		 0.00025646		-0.00015608		-0.00001979	
O		1.33936921		1.79153995		2.99390017		-0.00025646		 0.00015608		 0.00001979	
O		1.78256897		7.33154007		2.99390017		 0.00010983		-0.00010218		 0.00002967	
O		3.91883117		4.13366006		3.37609991		-0.00010983		 0.00010218		-0.00002967	
