# total energy = -18366.7370002 eV	

CRYSTAL	
PRIMVEC	
		4.81500175		-0.77040243		0.00000000	
		-1.77280184		11.07999810		0.00000000	
		0.00000000		0.00000000		6.37000135	
PRIMCOORD
   28 1	
Mg		0.00000000		0.00000000		0.00000000		0.00000000		0.00000000		0.00000000	
Mg		1.52109996		5.15479979		0.00000000		0.00000000		0.00000000		0.00000000	
Mg		0.00000000		0.00000000		3.18500019		0.00000000		0.00000000		0.00000000	
Mg		1.52109996		5.15479979		3.18500019		0.00000000		0.00000000		0.00000000	
Ca		4.27753499		2.09025693		1.59249985		 0.00035498		 0.00035327		-0.00000000	
Ca		-1.23533508		8.21934313		4.77750004		-0.00035498		-0.00035327		0.00000000	
Ca		1.89485517		2.32033707		4.77750004		 0.00024744		 0.00008268		0.00000000	
Ca		1.14734621		7.98926299		1.59249985		-0.00024744		-0.00008268		-0.00000000	
Si		1.78798402		0.64240886		1.59249985		-0.00089319		-0.00091513		0.00000000	
Si		1.25421589		9.66719071		4.77750004		 0.00089319		 0.00091513		0.00000000	
Si		3.61400615		3.89144874		4.77750004		 0.00054885		-0.00079125		0.00000000	
Si		-0.57180624		6.41815083		1.59249985		-0.00054885		 0.00079125		0.00000000	
O		3.55988181		0.15377377		1.59249985		-0.00078866		-0.00036589		0.00000000	
O		-0.51768189		10.15582483		4.77750004		 0.00078866		 0.00036589		0.00000000	
O		0.50353787		4.59425377		4.77750004		-0.00084592		 0.00093545		0.00000000	
O		2.53866205		5.71534580		1.59249985		 0.00084592		-0.00093545		0.00000000	
O		2.72126075		4.57410513		1.59249985		 0.00014540		-0.00032924		0.00000000	
O		0.32093916		5.73549492		4.77750004		-0.00014540		 0.00032924		0.00000000	
O		1.07251881		0.21706593		4.77750004		-0.00064511		-0.00036069		0.00000000	
O		1.96968111		10.09253412		1.59249985		 0.00064511		 0.00036069		0.00000000	
O		0.93251213		1.50263997		0.19109994		-0.00043753		-0.00015021		-0.00056476	
O		2.10968778		8.80696009		6.17889994		 0.00043753		 0.00015021		 0.00056476	
O		2.99608821		3.26696007		6.17889994		-0.00006101		-0.00061483		-0.00035298	
O		0.04611219		7.04263999		0.19109994		 0.00006101		 0.00061483		 0.00035298	
O		2.10968778		8.80696009		3.37610013		 0.00043753		 0.00015021		-0.00056476	
O		0.93251213		1.50263997		2.99389976		-0.00043753		-0.00015021		 0.00056476	
O		0.04611219		7.04263999		2.99389976		 0.00006101		 0.00061483		-0.00035298	
O		2.99608821		3.26696007		3.37610013		-0.00006101		-0.00061483		 0.00035298	
