# total energy = -117584.205051 eV	

CRYSTAL	
PRIMVEC	
		9.52919970		0.00000000		0.00000000	
		0.00000000		14.09700252		0.00000000	
		-2.20854450		0.00000000		9.76951659	
PRIMCOORD
   156 1	
Si		7.36497170		0.01395647		0.72440976		-0.00026091		-0.00041643		 0.00018876	
Si		-0.04431173		14.08304320		9.04511064		 0.00026091		 0.00041643		-0.00018876	
Si		1.05995766		7.06245582		4.16034949		 0.00026091		-0.00041643		-0.00018876	
Si		6.26070136		7.03454384		5.60917092		-0.00026091		 0.00041643		 0.00018876	
Si		3.25343459		2.67335504		6.58055371		 0.00031852		 0.00014680		 0.00006905	
Si		4.06722634		11.42364463		3.18896669		-0.00031852		-0.00014680		-0.00006905	
Si		2.96295504		9.72185439		8.07372689		-0.00031852		 0.00014680		-0.00006905	
Si		4.35770493		4.37514527		1.69579256		 0.00031852		-0.00014680		 0.00006905	
Si		1.09065598		1.76917311		4.16914303		 0.00007477		 0.00022111		-0.00020075	
Si		6.23000399		12.32782655		5.60037737		-0.00007477		-0.00022111		 0.00020075	
Si		7.33427339		8.81767247		0.71561717		-0.00007477		 0.00022111		 0.00020075	
Si		-0.01361532		5.27932720		9.05390228		 0.00007477		-0.00022111		-0.00020075	
Si		6.17871784		1.73858247		5.59793599		-0.00016578		 0.00001431		-0.00000397	
Si		1.14194213		12.35841624		4.17158441		 0.00016578		-0.00001431		 0.00000397	
Si		0.03767179		8.78708278		9.05634557		 0.00016578		 0.00001431		 0.00000397	
Si		7.28298819		5.30991688		0.71317484		-0.00016578		-0.00001431		-0.00000397	
Mg		3.66032951		0.00000000		4.88476020		0.00000000		0.00000000		0.00000000	
Mg		4.76459985		7.04849936		0.00000000		-0.00000000		0.00000000		-0.00000000	
Mg		3.95615303		2.46006772		3.48175993		-0.00024818		 0.00002084		 0.00002221	
Mg		3.36450694		11.63693289		6.28776047		 0.00024818		-0.00002084		-0.00002221	
Mg		4.46877728		9.50856803		1.40300123		 0.00024818		 0.00002084		-0.00002221	
Mg		2.85188269		4.58843258		8.36652013		-0.00024818		-0.00002084		 0.00002221	
Mg		4.76459985		0.00000000		0.00000000		0.00000000		0.00000000		0.00000000	
Mg		3.66032951		7.04849936		4.88476020		0.00000000		0.00000000		-0.00000000	
Mg		5.57248826		0.03510176		2.86383707		 0.00012460		-0.00012216		 0.00020060	
Mg		1.74817171		14.06189886		6.90568333		-0.00012460		 0.00012216		-0.00020060	
Mg		2.85244205		7.08360112		2.02092313		-0.00012460		-0.00012216		-0.00020060	
Mg		4.46821792		7.01339760		7.74859822		 0.00012460		 0.00012216		 0.00020060	
Mg		0.37953754		0.00493422		1.48887456		-0.00008592		-0.00014137		-0.00018728	
Mg		6.94112148		14.09206545		8.28064584		 0.00008592		 0.00014137		 0.00018728	
Mg		8.04539182		7.05343358		3.39588469		 0.00008592		-0.00014137		 0.00018728	
Mg		-0.72473185		7.04356609		6.37363572		-0.00008592		 0.00014137		-0.00018728	
Mg		-0.78154875		0.00493422		6.20091040		 0.00043794		-0.00001537		 0.00063195	
Mg		8.10220872		14.09206545		3.56861001		-0.00043794		 0.00001537		-0.00063195	
Mg		6.99793838		7.05343358		8.45337116		-0.00043794		-0.00001537		-0.00063195	
Mg		0.32272064		7.04356609		1.31615019		 0.00043794		 0.00001537		 0.00063195	
Mg		2.87463651		0.03904875		2.10484298		 0.00020308		-0.00066497		-0.00030089	
Mg		4.44602251		14.05795091		7.66467742		-0.00020308		 0.00066497		 0.00030089	
Mg		5.55029285		7.08754906		2.77991722		-0.00020308		-0.00066497		 0.00030089	
Mg		1.77036712		7.00945060		6.98960414		 0.00020308		 0.00066497		-0.00030089	
Mg		5.91402621		2.39564366		1.20760975		 0.00054905		-0.00023562		-0.00047129	
Mg		1.40663376		11.70135600		8.56190970		-0.00054905		 0.00023562		 0.00047129	
Mg		2.51090410		9.44414397		3.67714950		-0.00054905		-0.00023562		 0.00047129	
Mg		4.80975587		4.65285569		6.09237090		 0.00054905		 0.00023562		-0.00047129	
Mg		-1.47412336		2.43920354		9.47360159		-0.00006656		-0.00008656		-0.00016452	
Mg		8.79478238		11.65779517		0.29591881		 0.00006656		 0.00008656		 0.00016452	
Mg		7.69051299		9.48770385		5.18067902		 0.00006656		-0.00008656		 0.00016452	
Mg		-0.36985302		4.60929581		4.58884139		-0.00006656		 0.00008656		-0.00016452	
Mg		0.42204063		2.49798822		7.34638690		 0.00030380		 0.00010916		 0.00015078	
Mg		6.89861839		11.59901049		2.42313350		-0.00030380		-0.00010916		-0.00015078	
Mg		5.79434900		9.54648853		7.30789465		-0.00030380		 0.00010916		-0.00015078	
Mg		1.52631098		4.55051113		2.46162575		 0.00030380		-0.00010916		 0.00015078	
Mg		5.40364990		2.48008476		8.74235367		-0.00022565		 0.00035243		-0.00014169	
Mg		1.91701007		11.61691490		1.02716673		 0.00022565		-0.00035243		 0.00014169	
Mg		0.81273973		9.52858602		5.91192788		 0.00022565		 0.00035243		 0.00014169	
Mg		6.50792025		4.56841459		3.85759252		-0.00022565		-0.00035243		-0.00014169	
Mg		3.24476302		2.37633084		0.44060542		-0.00013197		 0.00018693		-0.00010442	
Mg		4.07589696		11.72066883		9.32891594		 0.00013197		-0.00018693		 0.00010442	
Mg		5.18016730		9.42483115		4.44415478		 0.00013197		 0.00018693		 0.00010442	
Mg		2.14049267		4.67216852		5.32536562		-0.00013197		-0.00018693		-0.00010442	
Mg		8.46412487		2.50221728		1.94237585		 0.00024424		 0.00010237		-0.00003754	
Mg		-1.14346489		11.59478143		7.82714456		-0.00024424		-0.00010237		 0.00003754	
Mg		-0.03919455		9.55071759		2.94238436		-0.00024424		 0.00010237		 0.00003754	
Mg		7.35985452		4.54628208		6.82713605		 0.00024424		-0.00010237		-0.00003754	
O		3.27051472		1.06009393		6.54167076		-0.00015421		-0.00012955		 0.00008379	
O		4.05014525		13.03690479		3.22784964		 0.00015421		 0.00012955		-0.00008379	
O		2.94587490		8.10859519		8.11260984		 0.00015421		-0.00012955		-0.00008379	
O		4.37478507		5.98840543		1.65691056		-0.00015421		 0.00012955		 0.00008379	
O		5.15040475		1.22502913		4.50667967		 0.00017173		 0.00002901		-0.00026681	
O		2.17025522		12.87197054		5.26284073		-0.00017173		-0.00002901		 0.00026681	
O		3.27452461		8.27352848		0.37808053		-0.00017173		 0.00002901		 0.00026681	
O		4.04613441		5.82347118		9.39144083		 0.00017173		-0.00002901		-0.00026681	
O		6.19865960		3.38327946		5.59402807		 0.00063495		 0.00013992		-0.00035858	
O		1.12200037		10.71371925		4.17549329		-0.00063495		-0.00013992		 0.00035858	
O		0.01773003		10.43177977		9.06025349		-0.00063495		 0.00013992		 0.00035858	
O		7.30292994		3.66521989		0.70926691		 0.00063495		-0.00013992		-0.00035858	
O		5.85155850		1.20952321		7.12100418		-0.00016941		-0.00007092		 0.00012240	
O		1.46910052		12.88747741		2.64851718		 0.00016941		 0.00007092		-0.00012240	
O		0.36483113		8.25802257		7.53327643		 0.00016941		-0.00007092		-0.00012240	
O		6.95582884		5.83897805		2.23624302		-0.00016941		 0.00007092		 0.00012240	
O		1.11227487		3.41852321		4.15106900		 0.00020853		 0.00021714		-0.00025047	
O		6.20838510		10.67847646		5.61845045		-0.00020853		-0.00021714		 0.00025047	
O		7.31265449		10.46702256		0.73369120		-0.00020853		 0.00021714		 0.00025047	
O		0.00800453		3.62997710		9.03583015		 0.00020853		-0.00021714		-0.00025047	
O		2.46001722		1.23348724		3.75344980		 0.00032550		-0.00014659		-0.00010671	
O		4.86064180		12.86351242		6.01607060		-0.00032550		 0.00014659		 0.00010671	
O		5.96491309		8.28198660		1.13131040		-0.00032550		-0.00014659		 0.00010671	
O		1.35574688		5.81501211		8.63821000		 0.00032550		 0.00014659		-0.00010671	
O		0.72045705		1.22784882		5.68195304		-0.00009110		 0.00025302		-0.00026880	
O		6.60020292		12.86915085		4.08756641		 0.00009110		-0.00025302		 0.00026880	
O		5.49593258		8.27634913		8.97232757		 0.00009110		 0.00025302		 0.00026880	
O		1.82472739		5.82065054		0.79719284		-0.00009110		-0.00025302		-0.00026880	
O		0.06772498		1.24194632		3.09791519		-0.00002563		 0.00027428		 0.00001772	
O		7.25293404		12.85505335		6.67160617		 0.00002563		-0.00027428		-0.00001772	
O		8.35720343		8.29044567		1.78684501		 0.00002563		 0.00027428		-0.00001772	
O		-1.03654537		5.80655399		7.98267444		-0.00002563		-0.00027428		 0.00001772	
O		3.58513745		3.40160602		5.17100688		-0.00022901		-0.00001746		 0.00003996	
O		3.73552156		10.69539365		4.59851352		 0.00022901		 0.00001746		-0.00003996	
O		2.63125217		10.45010538		9.48327373		 0.00022901		-0.00001746		-0.00003996	
O		4.68940780		3.64689429		0.28624668		-0.00022901		 0.00001746		 0.00003996	
O		4.18940592		3.36354354		7.61534190		-0.00012144		 0.00036369		 0.00019678	
O		3.13125405		10.73345613		2.15417851		 0.00012144		-0.00036369		-0.00019678	
O		2.02698370		10.41204480		7.03893966		 0.00012144		 0.00036369		-0.00019678	
O		5.29367627		3.68495582		2.73058074		-0.00012144		-0.00036369		 0.00019678	
O		4.38641546		1.19965477		1.68133390		-0.00002791		 0.00058361		 0.00045977	
O		2.93424356		12.89734489		8.08818555		 0.00002791		-0.00058361		-0.00045977	
O		4.03851390		8.24815508		3.20342630		 0.00002791		 0.00058361		-0.00045977	
O		3.28214607		5.84884458		6.56609506		-0.00002791		-0.00058361		 0.00045977	
O		4.21127448		1.04881707		9.47448113		-0.00015316		 0.00002185		 0.00013347	
O		3.10938358		13.04818259		0.29504022		 0.00015316		-0.00002185		-0.00013347	
O		2.00511419		8.09731643		5.17979947		 0.00015316		 0.00002185		-0.00013347	
O		5.31554578		5.99968324		4.58972093		-0.00015316		-0.00002185		 0.00013347	
O		7.07063759		1.06714268		2.14147894		-0.00002610		-0.00051474		 0.00026297	
O		0.25002238		13.02985699		7.62804146		 0.00002610		 0.00051474		-0.00026297	
O		1.35429177		8.11564299		2.74328126		 0.00002610		-0.00051474		-0.00026297	
O		5.96636820		5.98135668		7.02624010		-0.00002610		 0.00051474		 0.00026297	
O		-0.99305029		1.00652553		8.03054533		 0.00013946		 0.00004249		-0.00006675	
O		8.31370931		13.09047318		1.73897412		-0.00013946		-0.00004249		 0.00006675	
O		7.20943992		8.05502584		6.62373433		-0.00013946		 0.00004249		 0.00006675	
O		0.11122005		6.04197383		3.14578608		 0.00013946		-0.00004249		-0.00006675	
O		8.68809346		1.12212139		0.27257037		-0.00027602		-0.00026469		 0.00016966	
O		-1.36743349		12.97487827		9.49695099		 0.00027602		 0.00026469		-0.00016966	
O		-0.26316314		8.17062075		4.61219079		 0.00027602		-0.00026469		-0.00016966	
O		7.58382311		5.92637892		5.15732962		-0.00027602		 0.00026469		 0.00016966	
O		1.22226756		1.03471957		8.63430303		 0.00046878		 0.00052380		-0.00046480	
O		6.09839145		13.06227914		1.13521833		-0.00046878		-0.00052380		 0.00046480	
O		4.99412206		8.08321988		6.01997757		-0.00046878		 0.00052380		 0.00046480	
O		2.32653886		6.01377978		3.74954188		 0.00046878		-0.00052380		-0.00046480	
O		1.83266998		1.02767082		0.69461291		 0.00023653		-0.00027508		-0.00011227	
O		5.48798999		13.06932884		9.07490750		-0.00023653		 0.00027508		 0.00011227	
O		6.59225938		8.07617113		4.19014825		-0.00023653		-0.00027508		 0.00011227	
O		0.72839964		6.02082853		5.57937311		 0.00023653		 0.00027508		-0.00011227	
O		1.99133401		3.37200165		6.99009203		 0.00024598		 0.00009886		 0.00034346	
O		5.32932691		10.72499801		2.77942932		-0.00024598		-0.00009886		-0.00034346	
O		4.22505561		10.42050196		7.66418857		-0.00024598		 0.00009886		-0.00034346	
O		3.09560436		3.67649770		2.10533183		 0.00024598		-0.00009886		 0.00034346	
O		7.51960488		1.20106414		5.16319198		-0.00039676		-0.00011073		-0.00027234	
O		-0.19894491		12.89593552		4.60632842		 0.00039676		 0.00011073		 0.00027234	
O		-1.30321621		8.24956445		9.49108862		 0.00039676		-0.00011073		 0.00027234	
O		8.62387428		5.84743521		0.27843178		-0.00039676		 0.00011073		-0.00027234	
O		-0.76339753		3.49182658		6.22220816		 0.00069639		-0.00000359		-0.00007695	
O		8.08405750		10.60517404		3.54731320		-0.00069639		 0.00000359		 0.00007695	
O		6.97978811		10.54032689		8.43207245		-0.00069639		-0.00000359		 0.00007695	
O		0.34087186		3.55667278		1.33744700		 0.00069639		 0.00000359		-0.00007695	
O		7.98032835		3.49746596		3.55512905		 0.00008121		-0.00007909		-0.00054664	
O		-0.65966933		10.59953466		6.21439135		-0.00008121		 0.00007909		 0.00054664	
O		0.44460101		10.54596531		1.32963210		-0.00008121		-0.00007909		 0.00054664	
O		6.87605896		3.55103531		8.43988830		 0.00008121		 0.00007909		-0.00054664	
H		-1.08689385		2.72072088		5.86171281		 0.00013224		 0.00018599		 0.00060736	
H		8.40755382		11.37627879		3.90780759		-0.00013224		-0.00018599		-0.00060736	
H		7.30328347		9.76922023		8.79256874		-0.00013224		 0.00018599		-0.00060736	
H		0.01737554		4.32777848		0.97695166		 0.00013224		-0.00018599		 0.00060736	
H		7.82905230		2.87578764		4.06412077		 0.00022648		-0.00064537		 0.00022409	
H		-0.50839329		11.22121203		5.70539963		-0.00022648		 0.00064537		-0.00022409	
H		0.59587706		9.92428795		0.82064038		-0.00022648		-0.00064537		-0.00022409	
H		6.72478291		4.17271172		8.94888097		 0.00022648		 0.00064537		 0.00022409	
