# total energy = -117592.335707 eV	

CRYSTAL	
PRIMVEC	
		9.79389996		0.00000000		0.00000000	
		0.00000000		14.09699682		0.00000000	
		-2.26989302		0.00000000		9.76952294	
PRIMCOORD
   156 1	
Si		7.56955543		0.01395631		0.72440973		-0.00015125		-0.00020152		 0.00007763	
Si		-0.04554261		14.08304443		9.04511126		 0.00015125		 0.00020152		-0.00007763	
Si		1.08940096		7.06245570		4.16034979		 0.00015125		-0.00020152		-0.00007763	
Si		6.43460990		7.03454406		5.60917120		-0.00015125		 0.00020152		 0.00007763	
Si		3.34380786		2.67335469		6.58055370		 0.00005960		 0.00003862		 0.00019956	
Si		4.18020398		11.42364507		3.18896728		-0.00005960		-0.00003862		-0.00019956	
Si		3.04526041		9.72185505		8.07372679		-0.00005960		 0.00003862		-0.00019956	
Si		4.47875241		4.37514470		1.69579321		 0.00005960		-0.00003862		 0.00019956	
Si		1.12095201		1.76917303		4.16914275		 0.00013937		 0.00004370		-0.00008514	
Si		6.40305983		12.32782673		5.60037824		-0.00013937		-0.00004370		 0.00008514	
Si		7.53800438		8.81767339		0.71561676		-0.00013937		 0.00004370		 0.00008514	
Si		-0.01399254		5.27932734		9.05390324		 0.00013937		-0.00004370		-0.00008514	
Si		6.35034906		1.73858276		5.59793564		-0.00023505		 0.00002423		 0.00005133	
Si		1.17366278		12.35841700		4.17158535		 0.00023505		-0.00002423		-0.00005133	
Si		0.03871920		8.78708313		9.05634584		 0.00023505		 0.00002423		-0.00005133	
Si		7.48529264		5.30991663		0.71317515		-0.00023505		-0.00002423		 0.00005133	
Mg		3.76200641		0.00000000		4.88475951		0.00000000		0.00000000		-0.00000000	
Mg		4.89694998		7.04850037		0.00000000		-0.00000000		0.00000000		-0.00000000	
Mg		4.06604628		2.46006803		3.48175984		-0.00027726		-0.00019181		 0.00007636	
Mg		3.45796458		11.63693271		6.28776115		 0.00027726		 0.00019181		-0.00007636	
Mg		4.59291011		9.50856840		1.40300065		 0.00027726		-0.00019181		-0.00007636	
Mg		2.93110173		4.58843332		8.36652033		-0.00027726		 0.00019181		 0.00007636	
Mg		4.89694998		0.00000000		0.00000000		0.00000000		-0.00000000		-0.00000000	
Mg		3.76200641		7.04850037		4.88475951		0.00000000		-0.00000000		0.00000000	
Mg		5.72727878		0.03510232		2.86383723		 0.00010160		-0.00012731		 0.00011939	
Mg		1.79673208		14.06189940		6.90568376		-0.00010160		 0.00012731		-0.00011939	
Mg		2.93167663		7.08360073		2.02092327		-0.00010160		-0.00012731		-0.00011939	
Mg		4.59233521		7.01339805		7.74859772		 0.00010160		 0.00012731		 0.00011939	
Mg		0.39008124		0.00493417		1.48887455		-0.00008398		-0.00012098		-0.00009591	
Mg		7.13393060		14.09206559		8.28064644		 0.00008398		 0.00012098		 0.00009591	
Mg		8.26887515		7.05343356		3.39588496		 0.00008398		-0.00012098		 0.00009591	
Mg		-0.74486429		7.04356620		6.37363602		-0.00008398		 0.00012098		-0.00009591	
Mg		-0.80325944		0.00493417		6.20091080		 0.00034700		 0.00000713		 0.00050139	
Mg		8.32727030		14.09206559		3.56861018		-0.00034700		-0.00000713		-0.00050139	
Mg		7.19232575		7.05343356		8.45337068		-0.00034700		 0.00000713		-0.00050139	
Mg		0.33168609		7.04356620		1.31615031		 0.00034700		-0.00000713		 0.00050139	
Mg		2.95448761		0.03904926		2.10484328		 0.00017103		-0.00051042		-0.00023407	
Mg		4.56952423		14.05795050		7.66467771		-0.00017103		 0.00051042		 0.00023407	
Mg		5.70446781		7.08754865		2.77991721		-0.00017103		-0.00051042		 0.00023407	
Mg		1.81954305		7.00945111		6.98960377		 0.00017103		 0.00051042		-0.00023407	
Mg		6.07830488		2.39564376		1.20761039		 0.00032580		-0.00016499		-0.00023073	
Mg		1.44570695		11.70135600		8.56190961		-0.00032580		 0.00016499		 0.00023073	
Mg		2.58065053		9.44414412		3.67715010		-0.00032580		-0.00016499		 0.00023073	
Mg		4.94336033		4.65285563		6.09237088		 0.00032580		 0.00016499		-0.00023073	
Mg		-1.51507127		2.43920408		9.47360222		-0.00016770		 0.00004413		 0.00004660	
Mg		9.03908311		11.65779567		0.29591877		 0.00016770		-0.00004413		-0.00004660	
Mg		7.90413758		9.48770347		5.18067926		 0.00016770		 0.00004413		-0.00004660	
Mg		-0.38012672		4.60929628		4.58884172		-0.00016770		-0.00004413		 0.00004660	
Mg		0.43376497		2.49798805		7.34638673		 0.00034125		 0.00009310		-0.00003344	
Mg		7.09024687		11.59901072		2.42313425		-0.00034125		-0.00009310		 0.00003344	
Mg		5.95530330		9.54648940		7.30789475		-0.00034125		 0.00009310		 0.00003344	
Mg		1.56870854		4.55051134		2.46162624		 0.00034125		-0.00009310		-0.00003344	
Mg		5.55375242		2.48008480		8.74235439		-0.00019090		 0.00022328		-0.00021034	
Mg		1.97026040		11.61691495		1.02716660		 0.00019090		-0.00022328		 0.00021034	
Mg		0.83531585		9.52858615		5.91192807		 0.00019090		 0.00022328		 0.00021034	
Mg		6.68869599		4.56841459		3.85759291		-0.00019090		-0.00022328		-0.00021034	
Mg		3.33489541		2.37633116		0.44060503		-0.00009862		 0.00008100		-0.00009104	
Mg		4.18911643		11.72066859		9.32891595		 0.00009862		-0.00008100		 0.00009104	
Mg		5.32406098		9.42483055		4.44415546		 0.00009862		 0.00008100		 0.00009104	
Mg		2.19995086		4.67216920		5.32536553		-0.00009862		-0.00008100		-0.00009104	
Mg		8.69923968		2.50221706		1.94237619		 0.00005687		 0.00003088		 0.00013632	
Mg		-1.17522784		11.59478172		7.82714480		-0.00005687		-0.00003088		-0.00013632	
Mg		-0.04028427		9.55071840		2.94238430		-0.00005687		 0.00003088		-0.00013632	
Mg		7.56429611		4.54628233		6.82713570		 0.00005687		-0.00003088		 0.00013632	
O		3.36136245		1.06009369		6.54167094		-0.00010071		 0.00010270		 0.00012359	
O		4.16264939		13.03690509		3.22785004		 0.00010071		-0.00010270		-0.00012359	
O		3.02770484		8.10859504		8.11260956		 0.00010071		 0.00010270		-0.00012359	
O		4.49630700		5.98840570		1.65691143		-0.00010071		-0.00010270		 0.00012359	
O		5.29347169		1.22502884		4.50667972		 0.00008092		 0.00004941		-0.00009705	
O		2.23054015		12.87197091		5.26284127		-0.00008092		-0.00004941		 0.00009705	
O		3.36548372		8.27352921		0.37808078		-0.00008092		 0.00004941		 0.00009705	
O		4.15852714		5.82347055		9.39144119		 0.00008092		-0.00004941		-0.00009705	
O		6.37084476		3.38328022		5.59402787		 0.00032758		 0.00016883		-0.00027748	
O		1.15316708		10.71371954		4.17549311		-0.00032758		-0.00016883		 0.00027748	
O		0.01822253		10.43177960		9.06025361		-0.00032758		 0.00016883		 0.00027748	
O		7.50578931		3.66522015		0.70926738		 0.00032758		-0.00016883		-0.00027748	
O		6.01410195		1.20952314		7.12100363		-0.00020868		-0.00012983		 0.00015714	
O		1.50990989		12.88747760		2.64851736		 0.00020868		 0.00012983		-0.00015714	
O		0.37496534		8.25802253		7.53327687		 0.00020868		-0.00012983		-0.00015714	
O		7.14904552		5.83897821		2.23624314		-0.00020868		 0.00012983		 0.00015714	
O		1.14317241		3.41852259		4.15106909		-0.00002023		 0.00019367		 0.00000968	
O		6.38084041		10.67847717		5.61845092		 0.00002023		-0.00019367		-0.00000968	
O		7.51578398		10.46702295		0.73369141		 0.00002023		 0.00019367		-0.00000968	
O		0.00822688		3.62997680		9.03582958		-0.00002023		-0.00019367		 0.00000968	
O		2.52835110		1.23348685		3.75345046		 0.00001393		-0.00011633		 0.00001999	
O		4.99565976		12.86351290		6.01607053		-0.00001393		 0.00011633		-0.00001999	
O		6.13060529		8.28198722		1.13131003		-0.00001393		-0.00011633		-0.00001999	
O		1.39340655		5.81501155		8.63820997		 0.00001393		 0.00011633		 0.00001999	
O		0.74046879		1.22784851		5.68195261		-0.00011012		 0.00014900		-0.00014001	
O		6.78354207		12.86915125		4.08756740		 0.00011012		-0.00014900		 0.00014001	
O		5.64859752		8.27634887		8.97232789		 0.00011012		 0.00014900		 0.00014001	
O		1.87541432		5.82065088		0.79719310		-0.00011012		-0.00014900		-0.00014001	
O		0.06960721		1.24194585		3.09791535		-0.00006219		 0.00017527		 0.00005943	
O		7.45440463		12.85505391		6.67160563		 0.00006219		-0.00017527		-0.00005943	
O		8.58934918		8.29044621		1.78684514		 0.00006219		 0.00017527		-0.00005943	
O		-1.06533832		5.80655354		7.98267487		-0.00006219		-0.00017527		 0.00005943	
O		3.68472470		3.40160558		5.17100681		-0.00023283		-0.00000388		 0.00007492	
O		3.83928714		10.69539417		4.59851418		 0.00023283		 0.00000388		-0.00007492	
O		2.70434161		10.45010595		9.48327369		 0.00023283		-0.00000388		-0.00007492	
O		4.81966925		3.64689381		0.28624729		-0.00023283		 0.00000388		 0.00007492	
O		4.30577843		3.36354355		7.61534192		-0.00022447		 0.00025795		 0.00024909	
O		3.21823439		10.73345621		2.15417907		 0.00022447		-0.00025795		-0.00024909	
O		2.08328886		10.41204490		7.03893956		 0.00022447		 0.00025795		-0.00024909	
O		5.44072200		3.68495584		2.73058142		-0.00022447		-0.00025795		 0.00024909	
O		4.50826143		1.19965481		1.68133448		 0.00000407		 0.00029602		 0.00034227	
O		3.01575139		12.89734495		8.08818553		-0.00000407		-0.00029602		-0.00034227	
O		4.15069496		8.24815517		3.20342602		-0.00000407		 0.00029602		-0.00034227	
O		3.37331590		5.84884458		6.56609497		 0.00000407		-0.00029602		 0.00034227	
O		4.32825543		1.04881699		9.47448073		-0.00009524		 0.00003141		 0.00019612	
O		3.19575641		13.04818276		0.29504026		 0.00009524		-0.00003141		-0.00019612	
O		2.06081186		8.09731736		5.17979977		 0.00009524		 0.00003141		-0.00019612	
O		5.46319998		5.99968337		4.58972122		-0.00009524		-0.00003141		 0.00019612	
O		7.26704537		1.06714334		2.14147932		-0.00004092		-0.00024677		 0.00023189	
O		0.25696745		13.02985740		7.62804167		 0.00004092		 0.00024677		-0.00023189	
O		1.39191102		8.11564273		2.74328117		 0.00004092		-0.00024677		-0.00023189	
O		6.13209984		5.98135703		7.02623981		-0.00004092		 0.00024677		 0.00023189	
O		-1.02063505		1.00652595		8.03054549		 0.00013349		-0.00003325		-0.00004663	
O		8.54464591		13.09047380		1.73897354		-0.00013349		 0.00003325		 0.00004663	
O		7.40970234		8.05502632		6.62373501		-0.00013349		-0.00003325		 0.00004663	
O		0.11430852		6.04197441		3.14578598		 0.00013349		 0.00003325		-0.00004663	
O		8.92942865		1.12212140		0.27257011		-0.00020215		-0.00018216		 0.00016127	
O		-1.40541779		12.97487934		9.49695087		 0.00020215		 0.00018216		-0.00016127	
O		-0.27047422		8.17062079		4.61219136		 0.00020215		-0.00018216		-0.00016127	
O		7.79448508		5.92637897		5.15732963		-0.00020215		 0.00018216		 0.00016127	
O		1.25622045		1.03471965		8.63430319		 0.00023863		 0.00034706		-0.00027715	
O		6.26779138		13.06228010		1.13521780		-0.00023863		-0.00034706		 0.00027715	
O		5.13284683		8.08322002		6.01997829		-0.00023863		 0.00034706		 0.00027715	
O		2.39116501		6.01377973		3.74954171		 0.00023863		-0.00034706		-0.00027715	
O		1.88357655		1.02767098		0.69461277		 0.00011559		-0.00016820		-0.00001895	
O		5.64043431		13.06932877		9.07490822		-0.00011559		 0.00016820		 0.00001895	
O		6.77537788		8.07617135		4.19014773		-0.00011559		-0.00016820		 0.00001895	
O		0.74863298		6.02082938		5.57937326		 0.00011559		 0.00016820		-0.00001895	
O		2.04664792		3.37200156		6.99009151		 0.00007151		-0.00000926		 0.00028732	
O		5.47736294		10.72499820		2.77942948		-0.00007151		 0.00000926		-0.00028732	
O		4.34241936		10.42050193		7.66418899		-0.00007151		-0.00000926		-0.00028732	
O		3.18159345		3.67649783		2.10533199		 0.00007151		 0.00000926		 0.00028732	
O		7.72848301		1.20106415		5.16319225		-0.00038008		-0.00001865		-0.00013872	
O		-0.20447215		12.89593561		4.60632873		 0.00038008		 0.00001865		 0.00013872	
O		-1.33941572		8.24956452		9.49108922		 0.00038008		-0.00001865		 0.00013872	
O		8.86342756		5.84743524		0.27843176		-0.00038008		 0.00001865		-0.00013872	
O		-0.78460402		3.49182699		6.22220764		 0.00037546		 0.00008566		 0.00012472	
O		8.30861488		10.60517375		3.54731335		-0.00037546		-0.00008566		-0.00012472	
O		7.17367131		10.54032736		8.43207286		-0.00037546		 0.00008566		-0.00012472	
O		0.35034053		3.55667338		1.33744714		 0.00037546		-0.00008566		 0.00012472	
O		8.20200534		3.49746632		3.55512888		-0.00017663		-0.00038754		-0.00003054	
O		-0.67799252		10.59953540		6.21439210		 0.00017663		 0.00038754		 0.00003054	
O		0.45695105		10.54596570		1.32963161		 0.00017663		-0.00038754		 0.00003054	
O		7.06706079		3.55103503		8.43988937		-0.00017663		 0.00038754		-0.00003054	
H		-1.11708635		2.72072092		5.86171279		-0.00011808		 0.00012886		 0.00062062	
H		8.64109819		11.37627883		3.90780820		 0.00011808		-0.00012886		-0.00062062	
H		7.50615266		9.76922129		8.79256869		 0.00011808		 0.00012886		-0.00062062	
H		0.01785918		4.32777944		0.97695229		-0.00011808		-0.00012886		 0.00062062	
H		8.04652718		2.87578774		4.06412080		 0.00013524		-0.00008068		 0.00004899	
H		-0.52251534		11.22121201		5.70540018		-0.00013524		 0.00008068		-0.00004899	
H		0.61242921		9.92428811		0.82063969		-0.00013524		-0.00008068		-0.00004899	
H		6.91158165		4.17271165		8.94888129		 0.00013524		 0.00008068		 0.00004899	
