# total energy = -117597.966617 eV	

CRYSTAL	
PRIMVEC	
		10.05859969		0.00000000		0.00000000	
		0.00000000		14.09699670		0.00000000	
		-2.33124142		0.00000000		9.76952559	
PRIMCOORD
   156 1	
Si		7.77413680		0.01395631		0.72441029		-0.00040462		-0.00021743		 0.00015212	
Si		-0.04677450		14.08304341		9.04511027		 0.00040462		 0.00021743		-0.00015212	
Si		1.11884520		7.06245566		4.16034949		 0.00040462		-0.00021743		-0.00015212	
Si		6.60851810		7.03454406		5.60917108		-0.00040462		 0.00021743		 0.00015212	
Si		3.43418095		2.67335451		6.58055419		-0.00017718		 0.00018523		 0.00019144	
Si		4.29318335		11.42364421		3.18896738		 0.00017718		-0.00018523		-0.00019144	
Si		3.12756365		9.72185487		8.07372716		 0.00017718		 0.00018523		-0.00019144	
Si		4.59979864		4.37514485		1.69579340		-0.00017718		-0.00018523		 0.00019144	
Si		1.15124697		1.76917290		4.16914272		-0.00004721		 0.00009440		 0.00020037	
Si		6.57611533		12.32782682		5.60037785		 0.00004721		-0.00009440		-0.00020037	
Si		7.74173402		8.81767226		0.71561706		 0.00004721		 0.00009440		-0.00020037	
Si		-0.01437072		5.27932646		9.05390249		-0.00004721		-0.00009440		 0.00020037	
Si		6.52197994		1.73858269		5.59793562		-0.00041553		 0.00001020		-0.00004950	
Si		1.20538436		12.35841703		4.17158494		 0.00041553		-0.00001020		 0.00004950	
Si		0.03976466		8.78708305		9.05634573		 0.00041553		 0.00001020		 0.00004950	
Si		7.68759763		5.30991667		0.71317484		-0.00041553		-0.00001020		-0.00004950	
Mg		3.86368215		0.00000000		4.88475978		0.00000000		0.00000000		-0.00000000	
Mg		5.02929984		7.04849936		0.00000000		0.00000000		0.00000000		0.00000000	
Mg		4.17593931		2.46006794		3.48176014		-0.00046345		-0.00022878		 0.00061546	
Mg		3.55142399		11.63693279		6.28776042		 0.00046345		 0.00022878		-0.00061546	
Mg		4.71704168		9.50856729		1.40300064		 0.00046345		-0.00022878		-0.00061546	
Mg		3.01032062		4.58843243		8.36651992		-0.00046345		 0.00022878		 0.00061546	
Mg		5.02929984		0.00000000		0.00000000		0.00000000		-0.00000000		0.00000000	
Mg		3.86368215		7.04849936		4.88475978		-0.00000000		-0.00000000		-0.00000000	
Mg		5.88207094		0.03510250		2.86383723		 0.00021787		-0.00028113		 0.00039024	
Mg		1.84529336		14.06189822		6.90568333		-0.00021787		 0.00028113		-0.00039024	
Mg		3.01091105		7.08360085		2.02092255		-0.00021787		-0.00028113		-0.00039024	
Mg		4.71645225		7.01339786		7.74859801		 0.00021787		 0.00028113		 0.00039024	
Mg		0.40062296		0.00493374		1.48887493		-0.00009749		-0.00031795		 0.00003620	
Mg		7.32673934		14.09206598		8.28064563		 0.00009749		 0.00031795		-0.00003620	
Mg		8.49235803		7.05343411		3.39588485		 0.00009749		-0.00031795		-0.00003620	
Mg		-0.76499473		7.04356561		6.37363572		-0.00009749		 0.00031795		 0.00003620	
Mg		-0.82496913		0.00493374		6.20091045		 0.00037281		 0.00014633		 0.00035855	
Mg		8.55233143		14.09206598		3.56861011		-0.00037281		-0.00014633		-0.00035855	
Mg		7.38671273		7.05343411		8.45337090		-0.00037281		 0.00014633		-0.00035855	
Mg		0.34064957		7.04356561		1.31614966		 0.00037281		-0.00014633		 0.00035855	
Mg		3.03433854		0.03904950		2.10484245		 0.00007840		-0.00047587		-0.00021726	
Mg		4.69302376		14.05795022		7.66467811		-0.00007840		 0.00047587		 0.00021726	
Mg		5.85864245		7.08754885		2.77991732		-0.00007840		-0.00047587		 0.00021726	
Mg		1.86871984		7.00945087		6.98960424		 0.00007840		 0.00047587		-0.00021726	
Mg		6.24258323		2.39564361		1.20761033		 0.00084277		 0.00004611		-0.00036704	
Mg		1.48478008		11.70135611		8.56191023		-0.00084277		-0.00004611		 0.00036704	
Mg		2.65039877		9.44414397		3.67714945		-0.00084277		 0.00004611		 0.00036704	
Mg		5.07696453		4.65285575		6.09237112		 0.00084277		-0.00004611		-0.00036704	
Mg		-1.55601910		2.43920439		9.47360159		-0.00013502		-0.00015940		-0.00012701	
Mg		9.28338140		11.65779533		0.29591897		 0.00013502		 0.00015940		 0.00012701	
Mg		8.11776371		9.48770375		5.18067875		 0.00013502		-0.00015940		 0.00012701	
Mg		-0.39040041		4.60929597		4.58884181		-0.00013502		 0.00015940		-0.00012701	
Mg		0.44548834		2.49798785		7.34638680		 0.00028952		 0.00013009		 0.00030492	
Mg		7.28187496		11.59901086		2.42313376		-0.00028952		-0.00013009		-0.00030492	
Mg		6.11625727		9.54648821		7.30789455		-0.00028952		 0.00013009		-0.00030492	
Mg		1.61110603		4.55051050		2.46162601		 0.00028952		-0.00013009		 0.00030492	
Mg		5.70385267		2.48008455		8.74235346		-0.00026431		 0.00025345		 0.00013099	
Mg		2.02350962		11.61691416		1.02716710		 0.00026431		-0.00025345		-0.00013099	
Mg		0.85789193		9.52858592		5.91192788		 0.00026431		 0.00025345		-0.00013099	
Mg		6.86947036		4.56841481		3.85759268		-0.00026431		-0.00025345		 0.00013099	
Mg		3.42502662		2.37633110		0.44060489		-0.00041593		 0.00017033		-0.00021986	
Mg		4.30233467		11.72066862		9.32891567		 0.00041593		-0.00017033		 0.00021986	
Mg		5.46795336		9.42483046		4.44415489		 0.00041593		 0.00017033		 0.00021986	
Mg		2.25940893		4.67216926		5.32536567		-0.00041593		-0.00017033		-0.00021986	
Mg		8.93435402		2.50221649		1.94237595		 0.00011476		 0.00019418		-0.00007514	
Mg		-1.20699072		11.59478122		7.82714461		-0.00011476		-0.00019418		 0.00007514	
Mg		-0.04137303		9.55071786		2.94238383		-0.00011476		 0.00019418		 0.00007514	
Mg		7.76873533		4.54628186		6.82713573		 0.00011476		-0.00019418		-0.00007514	
O		3.45220999		1.06009393		6.54167066		-0.00042952		 0.00014754		 0.00047865	
O		4.27515331		13.03690479		3.22784990		 0.00042952		-0.00014754		-0.00047865	
O		3.10953462		8.10859429		8.11260968		 0.00042952		 0.00014754		-0.00047865	
O		4.61782868		5.98840543		1.65691088		-0.00042952		-0.00014754		 0.00047865	
O		5.43653734		1.22502881		4.50668015		-0.00030487		-0.00020439		-0.00017028	
O		2.29082496		12.87197091		5.26284041		 0.00030487		 0.00020439		 0.00017028	
O		3.45644265		8.27352917		0.37808063		 0.00030487		-0.00020439		 0.00017028	
O		4.27091965		5.82347055		9.39144094		-0.00030487		 0.00020439		-0.00017028	
O		6.54302958		3.38327941		5.59402785		 0.00007048		 0.00035750		-0.00008316	
O		1.18433373		10.71371930		4.17549271		-0.00007048		-0.00035750		 0.00008316	
O		0.01871503		10.43177977		9.06025349		-0.00007048		 0.00035750		 0.00008316	
O		7.70864727		3.66521995		0.70926707		 0.00007048		-0.00035750		-0.00008316	
O		6.17664508		1.20952247		7.12100375		-0.00028661		-0.00002974		 0.00013995	
O		1.55071822		12.88747725		2.64851681		 0.00028661		 0.00002974		-0.00013995	
O		0.38509852		8.25802283		7.53327659		 0.00028661		-0.00002974		-0.00013995	
O		7.34226378		5.83897789		2.23624297		-0.00028661		 0.00002974		 0.00013995	
O		1.17406792		3.41852273		4.15106842		 0.00023085		 0.00036338		-0.00005410	
O		6.55329438		10.67847699		5.61845114		-0.00023085		-0.00036338		 0.00005410	
O		7.71891408		10.46702309		0.73369136		-0.00023085		 0.00036338		 0.00005410	
O		0.00845023		3.62997663		9.03583021		 0.00023085		-0.00036338		-0.00005410	
O		2.59668484		1.23348709		3.75344996		 0.00006706		-0.00015894		-0.00021447	
O		5.13067745		12.86351263		6.01607060		-0.00006706		 0.00015894		 0.00021447	
O		6.29629715		8.28198644		1.13130982		-0.00006706		-0.00015894		 0.00021447	
O		1.43106615		5.81501227		8.63820974		 0.00006706		 0.00015894		-0.00021447	
O		0.76048244		1.22784924		5.68195309		-0.00023314		 0.00018453		 0.00017145	
O		6.96688086		12.86915048		4.08756647		 0.00023314		-0.00018453		-0.00017145	
O		5.80126317		8.27634860		8.97232725		 0.00023314		 0.00018453		-0.00017145	
O		1.92610114		5.82065112		0.79719331		-0.00023314		-0.00018453		 0.00017145	
O		0.07148848		1.24194637		3.09791492		-0.00009955		 0.00003564		 0.00001651	
O		7.65587482		12.85505335		6.67160564		 0.00009955		-0.00003564		-0.00001651	
O		8.82149352		8.29044572		1.78684485		 0.00009955		 0.00003564		-0.00001651	
O		-1.09413122		5.80655399		7.98267470		-0.00009955		-0.00003564		 0.00001651	
O		3.78431176		3.40160618		5.17100640		-0.00034453		 0.00007572		-0.00024834	
O		3.94305054		10.69539354		4.59851416		 0.00034453		-0.00007572		 0.00024834	
O		2.77743285		10.45010553		9.48327394		 0.00034453		 0.00007572		 0.00024834	
O		4.94992945		3.64689418		0.28624662		-0.00034453		-0.00007572		-0.00024834	
O		4.42214969		3.36354343		7.61534168		 0.00011693		 0.00018186		 0.00017925	
O		3.30521261		10.73345528		2.15417888		-0.00011693		-0.00018186		-0.00017925	
O		2.13959391		10.41204480		7.03893966		-0.00011693		 0.00018186		-0.00017925	
O		5.58776839		3.68495593		2.73058090		 0.00011693		-0.00018186		 0.00017925	
O		4.63010621		1.19965499		1.68133417		-0.00000862		 0.00032907		 0.00032382	
O		3.09725810		12.89734473		8.08818539		 0.00000862		-0.00032907		-0.00032382	
O		4.26287579		8.24815434		3.20342561		 0.00000862		 0.00032907		-0.00032382	
O		3.46448651		5.84884437		6.56609495		-0.00000862		-0.00032907		 0.00032382	
O		4.44523518		1.04881723		9.47448071		 0.00003888		 0.00044776		 0.00001919	
O		3.28212812		13.04818249		0.29503985		-0.00003888		-0.00044776		-0.00001919	
O		2.11651043		8.09731659		5.17979963		-0.00003888		 0.00044776		-0.00001919	
O		5.61085388		5.99968313		4.58972093		 0.00003888		-0.00044776		 0.00001919	
O		7.46345079		1.06714299		2.14147889		-0.00030764		-0.00020992		 0.00016394	
O		0.26391150		13.02985673		7.62804167		 0.00030764		 0.00020992		-0.00016394	
O		1.42953121		8.11564235		2.74328089		 0.00030764		-0.00020992		-0.00016394	
O		6.29783310		5.98135636		7.02623968		-0.00030764		 0.00020992		 0.00016394	
O		-1.04821975		1.00652585		8.03054559		 0.00022129		 0.00029697		-0.00014141	
O		8.77558305		13.09047387		1.73897397		-0.00022129		-0.00029697		 0.00014141	
O		7.60996335		8.05502621		6.62373475		-0.00022129		 0.00029697		 0.00014141	
O		0.11739895		6.04197351		3.14578581		 0.00022129		-0.00029697		-0.00014141	
O		9.17076431		1.12212129		0.27256995		-0.00051735		-0.00008200		 0.00016070	
O		-1.44340201		12.97487843		9.49695062		 0.00051735		 0.00008200		-0.00016070	
O		-0.27778432		8.17062064		4.61219084		 0.00051735		-0.00008200		-0.00016070	
O		8.00514662		5.92637908		5.15732972		-0.00051735		 0.00008200		 0.00016070	
O		1.29017232		1.03472010		8.63430298		 0.00032653		 0.00070422		-0.00028339	
O		6.43719098		13.06227962		1.13521758		-0.00032653		-0.00070422		 0.00028339	
O		5.27157329		8.08321946		6.01997736		-0.00032653		 0.00070422		 0.00028339	
O		2.45579102		6.01378026		3.74954219		 0.00032653		-0.00070422		-0.00028339	
O		1.93448498		1.02767104		0.69461270		 0.00047235		 0.00002459		-0.00017264	
O		5.79287832		13.06932868		9.07490787		-0.00047235		-0.00002459		 0.00017264	
O		6.95849702		8.07617039		4.19014809		-0.00047235		 0.00002459		 0.00017264	
O		0.76886628		6.02082832		5.57937247		 0.00047235		-0.00002459		-0.00017264	
O		2.10196268		3.37200171		6.99009209		-0.00045661		-0.00026920		 0.00020803	
O		5.62539962		10.72499801		2.77942848		 0.00045661		 0.00026920		-0.00020803	
O		4.45978193		10.42050207		7.66418926		 0.00045661		-0.00026920		-0.00020803	
O		3.26758238		3.67649765		2.10533231		-0.00045661		 0.00026920		 0.00020803	
O		7.93736071		1.20106420		5.16319188		-0.00047222		 0.00001766		 0.00013705	
O		-0.20999841		12.89593552		4.60632869		 0.00047222		-0.00001766		-0.00013705	
O		-1.37561611		8.24956456		9.49108846		 0.00047222		 0.00001766		-0.00013705	
O		9.10297941		5.84743516		0.27843210		-0.00047222		-0.00001766		 0.00013705	
O		-0.80580850		3.49182679		6.22220752		 0.00045957		 0.00045027		 0.00073095	
O		8.53317281		10.60517394		3.54731304		-0.00045957		-0.00045027		-0.00073095	
O		7.36755412		10.54032715		8.43207282		-0.00045957		 0.00045027		-0.00073095	
O		0.35980919		3.55667257		1.33744674		 0.00045957		-0.00045027		 0.00073095	
O		8.42368093		3.49746564		3.55512857		-0.00026673		-0.00081333		 0.00019841	
O		-0.69631763		10.59953509		6.21439199		 0.00026673		 0.00081333		-0.00019841	
O		0.46930107		10.54596600		1.32963221		 0.00026673		-0.00081333		-0.00019841	
O		7.25806223		3.55103472		8.43988835		-0.00026673		 0.00081333		 0.00019841	
H		-1.14727684		2.72072045		5.86171234		-0.00051392		-0.00023743		 0.00062883	
H		8.87464115		11.37627826		3.90780823		 0.00051392		 0.00023743		-0.00062883	
H		7.70902145		9.76922082		8.79256901		 0.00051392		-0.00023743		-0.00062883	
H		0.01834085		4.32777890		0.97695155		-0.00051392		 0.00023743		 0.00062883	
H		8.26399965		2.87578785		4.06412088		 0.00003785		 0.00020587		-0.00013383	
H		-0.53663736		11.22121187		5.70539969		-0.00003785		-0.00020587		 0.00013383	
H		0.62898234		9.92428721		0.82063991		-0.00003785		 0.00020587		 0.00013383	
H		7.09838196		4.17271151		8.94888065		 0.00003785		-0.00020587		-0.00013383	
