# total energy = -117601.397763 eV	

CRYSTAL	
PRIMVEC	
		10.32329994		0.00000000		0.00000000	
		0.00000000		14.09700289		0.00000000	
		-2.39258994		0.00000000		9.76951684	
PRIMCOORD
   156 1	
Si		7.97871955		0.01395607		0.72440970		-0.00023384		-0.00011116		 0.00010785	
Si		-0.04800541		14.08304372		9.04511127		 0.00023384		 0.00011116		-0.00010785	
Si		1.14828749		7.06245545		4.16034975		 0.00023384		-0.00011116		-0.00010785	
Si		6.78242665		7.03454434		5.60917122		-0.00023384		 0.00011116		 0.00010785	
Si		3.52455423		2.67335479		6.58055348		-0.00021343		 0.00019051		 0.00017759	
Si		4.40616094		11.42364500		3.18896749		 0.00021343		-0.00019051		-0.00017759	
Si		3.20986804		9.72185520		8.07372694		 0.00021343		 0.00019051		-0.00017759	
Si		4.72084713		4.37514459		1.69579300		-0.00021343		-0.00019051		 0.00017759	
Si		1.18154297		1.76917308		4.16914314		-0.00003790		 0.00007089		 0.00013206	
Si		6.74917117		12.32782671		5.60037783		 0.00003790		-0.00007089		-0.00013206	
Si		7.94546407		8.81767246		0.71561735		 0.00003790		 0.00007089		-0.00013206	
Si		-0.01474890		5.27932733		9.05390259		-0.00003790		-0.00007089		 0.00013206	
Si		6.69361117		1.73858308		5.59793637		-0.00027144		 0.00006902		-0.00011315	
Si		1.23710400		12.35841671		4.17158460		 0.00027144		-0.00006902		 0.00011315	
Si		0.04081213		8.78708245		9.05634612		 0.00027144		 0.00006902		 0.00011315	
Si		7.88990304		5.30991734		0.71317485		-0.00027144		-0.00006902		-0.00011315	
Mg		3.96535707		0.00000000		4.88476049		0.00000000		-0.00000000		0.00000000	
Mg		5.16164997		7.04850041		0.00000000		0.00000000		-0.00000000		0.00000000	
Mg		4.28583153		2.46006819		3.48176002		-0.00039012		-0.00021194		 0.00045709	
Mg		3.64488158		11.63693264		6.28776095		 0.00039012		 0.00021194		-0.00045709	
Mg		4.84117448		9.50856756		1.40300150		 0.00039012		-0.00021194		-0.00045709	
Mg		3.08953966		4.58843326		8.36651947		-0.00039012		 0.00021194		 0.00045709	
Mg		5.16164997		0.00000000		0.00000000		0.00000000		0.00000000		-0.00000000	
Mg		3.96535707		7.04850041		4.88476049		0.00000000		0.00000000		0.00000000	
Mg		6.03686244		0.03510232		2.86383722		 0.00025602		-0.00030111		 0.00028414	
Mg		1.89385273		14.06189850		6.90568375		-0.00025602		 0.00030111		-0.00028414	
Mg		3.09014564		7.08360066		2.02092326		-0.00025602		-0.00030111		-0.00028414	
Mg		4.84056850		7.01339809		7.74859771		 0.00025602		 0.00030111		 0.00028414	
Mg		0.41116568		0.00493351		1.48887484		-0.00005269		-0.00022657		 0.00010629	
Mg		7.51954846		14.09206628		8.28064613		 0.00005269		 0.00022657		-0.00010629	
Mg		8.71584136		7.05343392		3.39588462		 0.00005269		-0.00022657		-0.00010629	
Mg		-0.78512722		7.04356587		6.37363636		-0.00005269		 0.00022657		 0.00010629	
Mg		-0.84667783		0.00493351		6.20091103		 0.00025593		 0.00008792		 0.00037313	
Mg		8.77739300		14.09206628		3.56860994		-0.00025593		-0.00008792		-0.00037313	
Mg		7.58110010		7.05343392		8.45337146		-0.00025593		 0.00008792		-0.00037313	
Mg		0.34961404		7.04356587		1.31614951		 0.00025593		-0.00008792		 0.00037313	
Mg		3.11418963		0.03904891		2.10484343		 0.00007976		-0.00032552		-0.00014278	
Mg		4.81652451		14.05795087		7.66467754		-0.00007976		 0.00032552		 0.00014278	
Mg		6.01281844		7.08754933		2.77991705		-0.00007976		-0.00032552		 0.00014278	
Mg		1.91789673		7.00945046		6.98960392		 0.00007976		 0.00032552		-0.00014278	
Mg		6.40686190		2.39564357		1.20761034		 0.00058628		 0.00003845		-0.00021292	
Mg		1.52385327		11.70135622		8.56190960		-0.00058628		-0.00003845		 0.00021292	
Mg		2.72014618		9.44414398		3.67715015		-0.00058628		 0.00003845		 0.00021292	
Mg		5.21056899		4.65285581		6.09237082		 0.00058628		-0.00003845		-0.00021292	
Mg		-1.59696701		2.43920376		9.47360151		-0.00021569		 0.00012812		-0.00009539	
Mg		9.52768219		11.65779603		0.29591946		 0.00021569		-0.00012812		 0.00009539	
Mg		8.33138928		9.48770417		5.18067891		 0.00021569		 0.00012812		 0.00009539	
Mg		-0.40067411		4.60929561		4.58884206		-0.00021569		-0.00012812		-0.00009539	
Mg		0.45721070		2.49798773		7.34638646		 0.00027682		 0.00007754		 0.00008715	
Mg		7.47350448		11.59901103		2.42313348		-0.00027682		-0.00007754		-0.00008715	
Mg		6.27721054		9.54648917		7.30789500		-0.00027682		 0.00007754		-0.00008715	
Mg		1.65350360		4.55051062		2.46162597		 0.00027682		-0.00007754		 0.00008715	
Mg		5.85395421		2.48008506		8.74235366		-0.00014832		 0.00024159		-0.00017322	
Mg		2.07676096		11.61691473		1.02716731		 0.00014832		-0.00024159		 0.00017322	
Mg		0.88046806		9.52858547		5.91192780		 0.00014832		 0.00024159		 0.00017322	
Mg		7.05024711		4.56841535		3.85759317		-0.00014832		-0.00024159		-0.00017322	
Mg		3.51516002		2.37633074		0.44060464		-0.00029647		 0.00004721		-0.00013665	
Mg		4.41555515		11.72066905		9.32891634		 0.00029647		-0.00004721		 0.00013665	
Mg		5.61184805		9.42483115		4.44415482		 0.00029647		 0.00004721		 0.00013665	
Mg		2.31886712		4.67216864		5.32536615		-0.00029647		-0.00004721		-0.00013665	
Mg		9.16946884		2.50221719		1.94237637		 0.00010675		 0.00021914		 0.00016517	
Mg		-1.23875367		11.59478157		7.82714460		-0.00010675		-0.00021914		-0.00016517	
Mg		-0.04246077		9.55071760		2.94238411		-0.00010675		 0.00021914		-0.00016517	
Mg		7.97317594		4.54628219		6.82713583		 0.00010675		-0.00021914		 0.00016517	
O		3.54305771		1.06009451		6.54167077		-0.00027416		 0.00007758		 0.00025256	
O		4.38765746		13.03690528		3.22785020		 0.00027416		-0.00007758		-0.00025256	
O		3.19136456		8.10859492		8.11260965		 0.00027416		 0.00007758		-0.00025256	
O		4.73934958		5.98840590		1.65691132		-0.00027416		-0.00007758		 0.00025256	
O		5.57960529		1.22502884		4.50667995		-0.00028369		-0.00017259		-0.00007323	
O		2.35110988		12.87197095		5.26284102		 0.00028369		 0.00017259		 0.00007323	
O		3.54740175		8.27352925		0.37808054		 0.00028369		-0.00017259		 0.00007323	
O		4.38331239		5.82347054		9.39144043		-0.00028369		 0.00017259		-0.00007323	
O		6.71521474		3.38327987		5.59402797		-0.00005879		 0.00025179		 0.00000966	
O		1.21550043		10.71371992		4.17549300		 0.00005879		-0.00025179		-0.00000966	
O		0.01920753		10.43178028		9.06025349		 0.00005879		 0.00025179		-0.00000966	
O		7.91150661		3.66521951		0.70926748		-0.00005879		-0.00025179		 0.00000966	
O		6.33918854		1.20952324		7.12100404		-0.00023317		 0.00008823		 0.00000895	
O		1.59152560		12.88747758		2.64851693		 0.00023317		-0.00008823		-0.00000895	
O		0.39523373		8.25802262		7.53327741		 0.00023317		 0.00008823		-0.00000895	
O		7.53548144		5.83897820		2.23624253		-0.00023317		-0.00008823		 0.00000895	
O		1.20496551		3.41852258		4.15106911		 0.00001886		 0.00016275		 0.00005632	
O		6.72574966		10.67847721		5.61845083		-0.00001886		-0.00016275		-0.00005632	
O		7.92204257		10.46702299		0.73369138		-0.00001886		 0.00016275		-0.00005632	
O		0.00867157		3.62997680		9.03582959		 0.00001886		-0.00016275		 0.00005632	
O		2.66501872		1.23348672		3.75344966		-0.00000572		-0.00003792		-0.00004933	
O		5.26569645		12.86351307		6.01607131		 0.00000572		 0.00003792		 0.00004933	
O		6.46198935		8.28198713		1.13130979		 0.00000572		-0.00003792		 0.00004933	
O		1.46872582		5.81501163		8.63821015		-0.00000572		 0.00003792		-0.00004933	
O		0.78049516		1.22784917		5.68195255		-0.00019112		 0.00004004		 0.00006181	
O		7.15022001		12.86915062		4.08756739		 0.00019112		-0.00004004		-0.00006181	
O		5.95392814		8.27634854		8.97232788		 0.00019112		 0.00004004		-0.00006181	
O		1.97678703		5.82065124		0.79719309		-0.00019112		-0.00004004		 0.00006181	
O		0.07336873		1.24194563		3.09791495		-0.00004501		 0.00003002		 0.00013305	
O		7.85734541		12.85505416		6.67160602		 0.00004501		-0.00003002		-0.00013305	
O		9.05363832		8.29044604		1.78684450		 0.00004501		 0.00003002		-0.00013305	
O		-1.12292315		5.80655375		7.98267544		-0.00004501		-0.00003002		 0.00013305	
O		3.88389901		3.40160579		5.17100701		-0.00026783		-0.00009045		-0.00009568	
O		4.04681616		10.69539400		4.59851396		 0.00026783		 0.00009045		 0.00009568	
O		2.85052326		10.45010620		9.48327445		 0.00026783		-0.00009045		 0.00009568	
O		5.08019191		3.64689359		0.28624653		-0.00026783		 0.00009045		-0.00009568	
O		4.53852320		3.36354378		7.61534146		 0.00000081		 0.00013448		 0.00009061	
O		3.39219197		10.73345601		2.15417848		-0.00000081		-0.00013448		-0.00009061	
O		2.19589907		10.41204523		7.03894000		-0.00000081		 0.00013448		-0.00009061	
O		5.73481507		3.68495560		2.73058097		 0.00000081		-0.00013448		 0.00009061	
O		4.75195123		1.19965520		1.68133418		 0.00001577		 0.00020595		 0.00035661	
O		3.17876394		12.89734459		8.08818576		-0.00001577		-0.00020595		-0.00035661	
O		4.37505684		8.24815458		3.20342630		-0.00001577		 0.00020595		-0.00035661	
O		3.55565833		5.84884521		6.56609467		 0.00001577		-0.00020595		 0.00035661	
O		4.56221517		1.04881734		9.47448106		 0.00002016		 0.00034260		 0.00010473	
O		3.36850000		13.04818245		0.29503991		-0.00002016		-0.00034260		-0.00010473	
O		2.17220710		8.09731672		5.17980040		-0.00002016		 0.00034260		-0.00010473	
O		5.75850808		5.99968307		4.58972057		 0.00002016		-0.00034260		 0.00010473	
O		7.65985759		1.06714326		2.14147876		-0.00022409		-0.00004230		 0.00016325	
O		0.27085655		13.02985653		7.62804221		 0.00022409		 0.00004230		-0.00016325	
O		1.46715049		8.11564264		2.74328069		 0.00022409		-0.00004230		-0.00016325	
O		6.46356469		5.98135715		7.02624028		-0.00022409		 0.00004230		 0.00016325	
O		-1.07580451		1.00652587		8.03054561		 0.00027934		 0.00028272		-0.00019183	
O		9.00651865		13.09047392		1.73897433		-0.00027934		-0.00028272		 0.00019183	
O		7.81022574		8.05502628		6.62373481		-0.00027934		 0.00028272		 0.00019183	
O		0.12048840		6.04197350		3.14578616		 0.00027934		-0.00028272		-0.00019183	
O		9.41210045		1.12212103		0.27257022		-0.00038600		-0.00003665		 0.00010116	
O		-1.48138735		12.97487876		9.49695075		 0.00038600		 0.00003665		-0.00010116	
O		-0.28509445		8.17062144		4.61219130		 0.00038600		-0.00003665		-0.00010116	
O		8.21580858		5.92637939		5.15732967		-0.00038600		 0.00003665		 0.00010116	
O		1.32412426		1.03471984		8.63430278		 0.00009104		 0.00053924		-0.00021736	
O		6.60659091		13.06227995		1.13521820		-0.00009104		-0.00053924		 0.00021736	
O		5.41029801		8.08322025		6.01997765		-0.00009104		 0.00053924		 0.00021736	
O		2.52041716		6.01377954		3.74954229		 0.00009104		-0.00053924		-0.00021736	
O		1.98539150		1.02767109		0.69461253		 0.00036156		-0.00000723		-0.00010530	
O		5.94532161		13.06932870		9.07490844		-0.00036156		 0.00000723		 0.00010530	
O		7.14161451		8.07617047		4.19014796		-0.00036156		-0.00000723		 0.00010530	
O		0.78909963		6.02082932		5.57937301		 0.00036156		 0.00000723		-0.00010530	
O		2.15727754		3.37200166		6.99009221		-0.00019033		-0.00009998		 0.00012056	
O		5.77343660		10.72499813		2.77942876		 0.00019033		 0.00009998		-0.00012056	
O		4.57714370		10.42050207		7.66418925		 0.00019033		-0.00009998		-0.00012056	
O		3.35357147		3.67649772		2.10533173		-0.00019033		 0.00009998		 0.00012056	
O		8.14623883		1.20106433		5.16319227		-0.00039171		 0.00013388		 0.00022083	
O		-0.21552366		12.89593546		4.60632870		 0.00039171		-0.00013388		-0.00022083	
O		-1.41181657		8.24956474		9.49108918		 0.00039171		 0.00013388		-0.00022083	
O		9.34253174		5.84743505		0.27843179		-0.00039171		-0.00013388		 0.00022083	
O		-0.82701504		3.49182730		6.22220800		 0.00009656		 0.00024775		 0.00052824	
O		8.75773021		10.60517352		3.54731297		-0.00009656		-0.00024775		-0.00052824	
O		7.56143731		10.54032668		8.43207346		-0.00009656		 0.00024775		-0.00052824	
O		0.36927786		3.55667311		1.33744648		 0.00009656		-0.00024775		 0.00052824	
O		8.64535697		3.49746589		3.55512874		-0.00035120		-0.00057408		 0.00023364	
O		-0.71464179		10.59953493		6.21439223		 0.00035120		 0.00057408		-0.00023364	
O		0.48165111		10.54596630		1.32963174		 0.00035120		-0.00057408		-0.00023364	
O		7.44906406		3.55103452		8.43988923		-0.00035120		 0.00057408		 0.00023364	
H		-1.17746940		2.72072119		5.86171320		-0.00037105		 0.00008153		 0.00063723	
H		9.10818354		11.37627860		3.90780777		 0.00037105		-0.00008153		-0.00063723	
H		7.91189063		9.76922056		8.79256929		 0.00037105		 0.00008153		-0.00063723	
H		0.01882351		4.32777923		0.97695168		-0.00037105		-0.00008153		 0.00063723	
H		8.48147355		2.87578747		4.06412111		-0.00001850		 0.00053135		-0.00024947	
H		-0.55075941		11.22121232		5.70539986		 0.00001850		-0.00053135		 0.00024947	
H		0.64553350		9.92428788		0.82064041		 0.00001850		 0.00053135		 0.00024947	
H		7.28518064		4.17271190		8.94888057		-0.00001850		-0.00053135		-0.00024947	
