# total energy = -49431.162347 eV	

CRYSTAL	
PRIMVEC	
		18.23299464		0.00000000		1.45863591	
		0.00000000		8.81910900		0.00000000	
		0.41442490		0.00000000		5.18019239	
PRIMCOORD
   80 1	
Mg		7.22008772		5.76857442		5.03649449		 0.00014061		-0.00008561		-0.00072837	
Mg		11.42732999		3.05052726		1.60234662		-0.00014061		 0.00008561		 0.00072837	
Mg		2.40722209		3.05052726		2.07794113		 0.00015566		-0.00019832		-0.00026092	
Mg		16.24019197		5.76857442		4.56089815		-0.00015566		 0.00019832		 0.00026092	
Mg		11.63453696		1.35902358		4.19244648		-0.00014061		-0.00008561		 0.00072837	
Mg		7.01287893		7.46007627		2.44639280		 0.00014061		 0.00008561		-0.00072837	
Mg		16.03298501		7.46007627		1.97079829		-0.00015566		-0.00019832		 0.00026092	
Mg		2.61443088		1.35902358		4.66804099		 0.00015566		 0.00019832		-0.00026092	
Mg		7.02075148		4.29666638		2.40893415		 0.00012391		-0.00029017		-0.00031872	
Mg		11.62666440		4.52243347		4.22990513		-0.00012391		 0.00029017		 0.00031872	
Mg		2.60042344		4.52243347		4.62883369		 0.00050344		-0.00001851		-0.00056884	
Mg		16.04699062		4.29666638		2.01000742		-0.00050344		 0.00001851		 0.00056884	
Mg		11.41945744		8.70621539		1.63980528		-0.00012391		-0.00029017		 0.00031872	
Mg		7.22795845		0.11288446		4.99903583		 0.00012391		 0.00029017		-0.00031872	
Mg		16.25419941		0.11288446		4.60010728		-0.00050344		-0.00001851		 0.00056884	
Mg		2.39321647		8.70621539		2.03873200		 0.00050344		 0.00001851		-0.00056884	
Si		4.97122947		3.01436911		0.65813938		-0.00046554		-0.00025107		 0.00002461	
Si		13.67618642		5.80473257		5.98070173		 0.00046554		 0.00025107		-0.00002461	
Si		4.39441849		5.80473257		3.18551670		-0.00034233		-0.00000240		 0.00000187	
Si		14.25299740		3.01436911		3.45332258		 0.00034233		 0.00000240		-0.00000187	
Si		13.46897945		7.42391812		3.39060005		 0.00046554		-0.00025107		-0.00002461	
Si		5.17843643		1.39518173		3.24823923		-0.00046554		 0.00025107		 0.00002461	
Si		14.46020619		1.39518173		6.04342244		 0.00034233		-0.00000240		-0.00000187	
Si		4.18720969		7.42391812		0.59541684		-0.00034233		 0.00000240		 0.00000187	
Si		8.96589447		2.97556422		4.82512992		-0.00021790		 0.00029736		 0.00009691	
Si		9.68152142		5.84353563		1.81370936		 0.00021790		-0.00029736		-0.00009691	
Si		0.60488988		5.84353563		1.58272560		-0.00028926		-0.00005819		-0.00028976	
Si		18.04252783		2.97556422		5.05611368		 0.00028926		 0.00005819		 0.00028976	
Si		9.88872838		7.38511323		4.40381104		 0.00021790		 0.00029736		-0.00009691	
Si		8.75868567		1.43398662		2.23503007		-0.00021790		-0.00029736		 0.00009691	
Si		17.83531904		1.43398662		2.46601383		 0.00028926		-0.00005819		 0.00028976	
Si		0.81209685		7.38511323		4.17282545		-0.00028926		 0.00005819		-0.00028976	
O		3.35984514		3.00466743		0.44378785		-0.00040039		-0.00038296		 0.00002717	
O		15.28756892		5.81443242		6.19505326		 0.00040039		 0.00038296		-0.00002717	
O		5.99204231		5.81443242		3.22788656		-0.00046265		 0.00052379		-0.00047181	
O		12.65537358		3.00466743		3.41095455		 0.00046265		-0.00052379		 0.00047181	
O		15.08036196		7.41421827		3.60495341		 0.00040039		-0.00038296		-0.00002717	
O		3.56705393		1.40488341		3.03388771		-0.00040039		 0.00038296		 0.00002717	
O		12.86258054		1.40488341		6.00105441		 0.00046265		 0.00052379		 0.00047181	
O		5.78483535		7.41421827		0.63778670		-0.00046265		-0.00052379		-0.00047181	
O		5.69557586		4.43512567		0.67696839		-0.00008217		 0.00009508		-0.00013949	
O		12.95184002		4.38397418		5.96187089		 0.00008217		-0.00009508		 0.00013949	
O		3.66377259		4.38397418		3.08794750		-0.00038487		-0.00012351		 0.00000694	
O		14.98364330		4.43512567		3.55089178		 0.00038487		 0.00012351		-0.00000694	
O		12.74463123		0.02557483		3.37177103		 0.00008217		 0.00009508		 0.00013949	
O		5.90278466		8.79352502		3.26706825		-0.00008217		-0.00009508		-0.00013949	
O		15.19085210		8.79352502		6.14099164		 0.00038487		-0.00012351		-0.00000694	
O		3.45656379		0.02557483		0.49784765		-0.00038487		 0.00012351		 0.00000694	
O		5.86027762		1.96136732		4.75116558		-0.00033984		 0.00048371		-0.00021033	
O		12.78713827		6.85773253		1.88767553		 0.00033984		-0.00048371		 0.00021033	
O		3.73860210		6.85773253		2.00790759		-0.00006419		-0.00037375		-0.00048336	
O		14.90881196		1.96136732		4.63093170		 0.00006419		 0.00037375		 0.00048336	
O		12.99434707		6.37091816		4.47777538		 0.00033984		 0.00048371		 0.00021033	
O		5.65306882		2.44818169		2.16106573		-0.00033984		-0.00048371		-0.00021033	
O		14.70160317		2.44818169		2.04083184		 0.00006419		-0.00037375		 0.00048336	
O		3.94581089		6.37091816		4.59800744		-0.00006419		 0.00037375		-0.00048336	
O		10.58129739		3.01084073		4.95384729		-0.00032185		-0.00040251		 0.00023072	
O		8.06611850		5.80825912		1.68499382		 0.00032185		 0.00040251		-0.00023072	
O		17.22240295		5.80825912		2.91161251		-0.00049815		-0.00028233		 0.00041599	
O		1.42501293		3.01084073		3.72722860		 0.00049815		 0.00028233		-0.00041599	
O		8.27332729		7.42039157		4.27509367		 0.00032185		-0.00040251		-0.00023072	
O		10.37408859		1.39870828		2.36374744		-0.00032185		 0.00040251		 0.00023072	
O		1.21780414		1.39870828		1.13712874		 0.00049815		-0.00028233		-0.00041599	
O		17.42960992		7.42039157		5.50171237		-0.00049815		 0.00028233		 0.00041599	
O		8.16989575		4.26491642		4.20505464		 0.00043852		 0.00091574		-0.00013537	
O		10.47752014		4.55418343		2.43378647		-0.00043852		-0.00091574		 0.00013537	
O		1.31129073		4.55418343		1.08284214		 0.00001653		-0.00000780		-0.00009596	
O		17.33612516		4.26491642		5.55599715		-0.00001653		 0.00000780		 0.00009596	
O		10.68472710		8.67446726		5.02388633		-0.00043852		 0.00091574		 0.00013537	
O		7.96268879		0.14463259		1.61495478		 0.00043852		-0.00091574		-0.00013537	
O		17.12891819		0.14463259		2.96589729		-0.00001653		-0.00000780		 0.00009596	
O		1.51849769		8.67446726		3.67294199		 0.00001653		 0.00000780		-0.00009596	
O		8.42374724		1.72060689		3.77756978		 0.00001955		-0.00027289		 0.00033490	
O		10.22366865		7.09849479		2.86127133		-0.00001955		 0.00027289		-0.00033490	
O		0.98533147		7.09849479		0.60897249		 0.00061046		 0.00005400		-0.00030327	
O		17.66208442		1.72060689		6.02986862		-0.00061046		-0.00005400		 0.00030327	
O		10.43087744		6.13015773		5.45137118		-0.00001955		-0.00027289		-0.00033490	
O		8.21653844		2.68894395		1.18746810		 0.00001955		 0.00027289		 0.00033490	
O		17.45487745		2.68894395		3.43976876		-0.00061046		 0.00005400		 0.00030327	
O		1.19253843		6.13015773		3.19907235		 0.00061046		-0.00005400		-0.00030327	
