# total energy = -49432.4009485 eV	

CRYSTAL	
PRIMVEC	
		18.23300053		0.00000000		-0.72931929	
		0.00000000		8.81909208		0.00000000	
		-0.20720127		0.00000000		5.18019610	
PRIMCOORD
   80 1	
Mg		6.68157416		5.76857473		4.21316375		-0.00037585		-0.00004890		 0.00031780	
Mg		11.34421962		3.05052647		0.23771670		 0.00037585		 0.00004890		-0.00031780	
Mg		2.17952202		3.05052647		1.80728963		-0.00056742		 0.00021991		-0.00002561	
Mg		15.84626994		5.76857473		2.64359083		 0.00056742		-0.00021991		 0.00002561	
Mg		11.24061533		1.35902322		2.82781658		 0.00037585		-0.00004890		-0.00031780	
Mg		6.78517845		7.46007616		1.62306388		-0.00037585		 0.00004890		 0.00031780	
Mg		15.94987422		7.46007616		0.05348913		 0.00056742		 0.00021991		 0.00002561	
Mg		2.07591773		1.35902322		4.39738950		-0.00056742		-0.00021991		-0.00002561	
Mg		6.79765067		4.29666651		1.58429325		-0.00042300		 0.00018478		 0.00010785	
Mg		11.22814128		4.52243469		2.86658721		 0.00042300		-0.00018478		-0.00010785	
Mg		2.06651110		4.52243469		4.35949475		-0.00035719		-0.00015485		 0.00037352	
Mg		15.95927903		4.29666651		0.09138571		 0.00035719		 0.00015485		-0.00037352	
Mg		11.33174557		8.70621619		0.27648734		 0.00042300		 0.00018478		-0.00010785	
Mg		6.69404639		0.11288501		4.17439312		-0.00042300		-0.00018478		 0.00010785	
Mg		15.85567656		0.11288501		2.68148558		 0.00035719		-0.00015485		-0.00037352	
Mg		2.17011539		8.70621619		1.76939488		-0.00035719		 0.00015485		 0.00037352	
Si		4.93977510		3.01436889		0.06410740		-0.00044221		 0.00040441		-0.00031896	
Si		13.08601685		5.80473231		4.38677123		 0.00044221		-0.00040441		 0.00031896	
Si		4.05215258		5.80473231		2.68556939		 0.00025628		 0.00026192		 0.00001671	
Si		13.97363938		3.01436889		1.76531107		-0.00025628		-0.00026192		-0.00001671	
Si		13.18962114		7.42391858		1.79667136		 0.00044221		 0.00040441		 0.00031896	
Si		4.83617082		1.39518262		2.65420727		-0.00044221		-0.00040441		-0.00031896	
Si		13.87003509		1.39518262		4.35541277		-0.00025628		 0.00026192		-0.00001671	
Si		4.15575504		7.42391858		0.09546769		 0.00025628		-0.00026192		 0.00001671	
Si		8.46977500		2.97556359		3.78891116		 0.00061055		 0.00023461		-0.00029496	
Si		9.55601513		5.84353579		0.66196747		-0.00061055		-0.00023461		 0.00029496	
Si		0.41958121		5.84353579		1.52496489		-0.00043364		-0.00011071		-0.00003049	
Si		17.60620892		2.97556359		2.92591739		 0.00043364		 0.00011071		 0.00003049	
Si		9.45241085		7.38511327		3.25206735		-0.00061055		 0.00023461		 0.00029496	
Si		8.57337928		1.43398610		1.19881129		 0.00061055		-0.00023461		-0.00029496	
Si		17.70981320		1.43398610		0.33581570		 0.00043364		-0.00011071		 0.00003049	
Si		0.31597875		7.38511327		4.11506476		-0.00043364		 0.00011071		-0.00003049	
O		3.33871051		3.00466848		0.04229789		-0.00035011		 0.00086033		-0.00020350	
O		14.68708145		5.81443272		4.40858439		 0.00035011		-0.00086033		 0.00020350	
O		5.66009651		5.81443272		2.53539728		 0.00028078		 0.00010308		-0.00001062	
O		12.36569544		3.00466848		1.91548318		-0.00028078		-0.00010308		 0.00001062	
O		14.79068573		7.41421816		1.81848269		 0.00035011		 0.00086033		 0.00020350	
O		3.23510622		1.40488304		2.63239777		-0.00035011		-0.00086033		-0.00020350	
O		12.26209115		1.40488304		4.50558305		-0.00028078		 0.00010308		 0.00001062	
O		5.76370080		7.41421816		-0.05470260		 0.00028078		-0.00010308		-0.00001062	
O		5.66884623		4.43512550		-0.00436117		-0.00000533		 0.00035354		 0.00016180	
O		12.35694573		4.38397570		4.45524163		 0.00000533		-0.00035354		-0.00016180	
O		3.32622916		4.38397570		2.67529965		-0.00030238		-0.00011357		-0.00000698	
O		14.69956097		4.43512550		1.77558081		 0.00030238		 0.00011357		 0.00000698	
O		12.46055001		0.02557581		1.86514175		 0.00000533		 0.00035354		-0.00016180	
O		5.56524194		8.79352539		2.58573870		-0.00000533		-0.00035354		 0.00016180	
O		14.59595851		8.79352539		4.36568068		 0.00030238		-0.00011357		 0.00000698	
O		3.42983345		0.02557581		0.08519978		-0.00030238		 0.00011357		-0.00000698	
O		5.34308677		1.96136854		4.08930648		 0.00067417		-0.00059810		-0.00036002	
O		12.68270518		6.85773266		0.36157216		-0.00067417		 0.00059810		 0.00036002	
O		3.53222427		6.85773266		1.57578622		 0.00033976		-0.00034726		 0.00028656	
O		14.49356768		1.96136854		2.87509423		-0.00033976		 0.00034726		-0.00028656	
O		12.57910272		6.37091823		2.95167385		-0.00067417		-0.00059810		 0.00036002	
O		5.44668924		2.44818114		1.49920660		 0.00067417		 0.00059810		-0.00036002	
O		14.59717197		2.44818114		0.28499436		-0.00033976		-0.00034726		-0.00028656	
O		3.42861999		6.37091823		4.16588610		 0.00033976		 0.00034726		 0.00028656	
O		10.08524058		3.01084163		3.72377642		 0.00048692		-0.00006519		 0.00012364	
O		7.94055137		5.80825957		0.72710403		-0.00048692		 0.00006519		-0.00012364	
O		17.03715812		5.80825957		0.85974387		-0.00049244		-0.00070395		 0.00034421	
O		0.98863383		3.01084163		3.59113659		 0.00049244		 0.00070395		-0.00034421	
O		7.83694708		7.42039132		3.31720391		-0.00048692		-0.00006519		-0.00012364	
O		10.18884487		1.39870988		1.13367655		 0.00048692		 0.00006519		 0.00012364	
O		1.09223629		1.39870988		1.00103671		 0.00049244		-0.00070395		-0.00034421	
O		16.93355566		7.42039132		3.44984375		-0.00049244		 0.00070395		 0.00034421	
O		7.74097576		4.26491754		3.25897953		 0.00003309		 0.00002626		-0.00011903	
O		10.28481619		4.55418366		1.19189910		-0.00003309		-0.00002626		 0.00011903	
O		1.19318008		4.55418366		0.93493668		 0.00024243		-0.00012231		-0.00001321	
O		16.83261005		4.26491754		3.51594378		-0.00024243		 0.00012231		 0.00001321	
O		10.18121191		8.67446723		3.78200080		-0.00003309		 0.00002626		 0.00011903	
O		7.84457822		0.14463215		0.66887966		 0.00003309		-0.00002626		-0.00011903	
O		16.93621433		0.14463215		0.92584391		-0.00024243		-0.00012231		 0.00001321	
O		1.08957762		8.67446723		3.52503655		 0.00024243		 0.00012231		-0.00001321	
O		8.04890733		1.72060632		2.79670628		-0.00031141		 0.00074374		-0.00055433	
O		9.97688463		7.09849305		1.65417418		 0.00031141		-0.00074374		 0.00055433	
O		0.92130391		7.09849305		0.49585427		 0.00016869		-0.00004984		-0.00050737	
O		17.10448805		1.72060632		3.95502436		-0.00016869		 0.00004984		 0.00050737	
O		9.87328034		6.13015783		4.24427405		 0.00031141		 0.00074374		 0.00055433	
O		8.15251162		2.68894337		0.20660640		-0.00031141		-0.00074374		-0.00055433	
O		17.20809233		2.68894337		1.36492448		-0.00016869		-0.00004984		 0.00050737	
O		0.81769962		6.13015783		3.08595415		 0.00016869		 0.00004984		-0.00050737	
