# total energy = -49427.9065541 eV	

CRYSTAL	
PRIMVEC	
		18.23300236		0.00000000		2.18795588	
		0.00000000		8.81910850		0.00000000	
		0.62161489		0.00000000		5.18019144	
PRIMCOORD
   80 1	
Mg		7.39959167		5.76857335		5.31093624		-0.00052819		-0.00048972		 0.00060304	
Mg		11.45503294		3.05052780		2.05722393		 0.00052819		 0.00048972		-0.00060304	
Mg		2.48312287		3.05052780		2.16815786		-0.00030066		 0.00026071		-0.00035419	
Mg		16.37149990		5.76857335		5.20000232		 0.00030066		-0.00026071		 0.00035419	
Mg		11.76584589		1.35902278		4.64732332		 0.00052819		-0.00048972		-0.00060304	
Mg		7.08877871		7.46007654		2.72083685		-0.00052819		 0.00048972		 0.00060304	
Mg		16.06068694		7.46007654		2.60990109		 0.00030066		 0.00026071		 0.00035419	
Mg		2.79393582		1.35902278		4.75825725		-0.00030066		-0.00026071		-0.00035419	
Mg		7.09511790		4.29666641		2.68381541		-0.00012869		 0.00015351		-0.00012152	
Mg		11.75950487		4.52243474		4.68434476		 0.00012869		-0.00015351		 0.00012152	
Mg		2.77839453		4.52243474		4.71861162		-0.00023021		-0.00034729		 0.00020231	
Mg		16.07622823		4.29666641		2.64954855		 0.00023021		 0.00034729		-0.00020231	
Mg		11.44869375		8.70621515		2.09424353		 0.00012869		 0.00015351		 0.00012152	
Mg		7.40592902		0.11288416		5.27391664		-0.00012869		-0.00015351		-0.00012152	
Mg		16.38703935		0.11288416		5.23964794		 0.00023021		-0.00034729		-0.00020231	
Mg		2.46758341		8.70621515		2.12851223		-0.00023021		 0.00034729		 0.00020231	
Si		4.98171357		3.01436946		0.85614826		-0.00073251		 0.00042304		 0.00031088	
Si		13.87290920		5.80473169		6.51201007		 0.00073251		-0.00042304		-0.00031088	
Si		4.50850763		5.80473169		3.35216620		-0.00038580		-0.00018244		 0.00014210	
Si		14.34611698		3.01436946		4.01599214		 0.00038580		 0.00018244		-0.00014210	
Si		13.56209808		7.42391820		3.92191068		 0.00073251		 0.00042304		-0.00031088	
Si		5.29252469		1.39518111		3.44624949		-0.00073251		-0.00042304		 0.00031088	
Si		14.65692810		1.39518111		6.60609337		 0.00038580		-0.00018244		-0.00014210	
Si		4.19769467		7.42391820		0.76206680		-0.00038580		 0.00018244		 0.00014210	
Si		9.13126752		2.97556306		5.17053575		 0.00009102		 0.00030336		-0.00008511	
Si		9.72335525		5.84353625		2.19762442		-0.00009102		-0.00030336		 0.00008511	
Si		0.66665764		5.84353625		1.60197963		-0.00057291		 0.00025210		-0.00017983	
Si		18.18796696		2.97556306		5.76618055		 0.00057291		-0.00025210		 0.00017983	
Si		10.03416820		7.38511364		4.78772565		-0.00009102		 0.00030336		 0.00008511	
Si		8.82045456		1.43398568		2.58043452		 0.00009102		-0.00030336		-0.00008511	
Si		17.87715401		1.43398568		3.17607932		 0.00057291		 0.00025210		 0.00017983	
Si		0.97746876		7.38511364		4.19207902		-0.00057291		-0.00025210		-0.00017983	
O		3.36689030		3.00466786		0.57761705		-0.00077705		 0.00013777		-0.00010615	
O		15.48773247		5.81443329		6.79054313		 0.00077705		-0.00013777		 0.00010615	
O		6.10269182		5.81443329		3.45871668		-0.00021307		 0.00021203		 0.00060127	
O		12.75193095		3.00466786		3.90944349		 0.00021307		-0.00021203		-0.00060127	
O		15.17692135		7.41421844		4.20044373		 0.00077705		 0.00013777		 0.00010615	
O		3.67770325		1.40488271		3.16771644		-0.00077705		-0.00013777		-0.00010615	
O		13.06274391		1.40488271		6.49954288		 0.00021307		 0.00021203		-0.00060127	
O		5.79188070		7.41421844		0.86861545		-0.00021307		-0.00021203		 0.00060127	
O		5.70448550		4.43512585		0.90407964		 0.00001361		 0.00028563		 0.00059832	
O		13.15013727		4.38397530		6.46408053		-0.00001361		-0.00028563		-0.00059832	
O		3.77628568		4.38397530		3.22549816		-0.00039941		-0.00005934		-0.00013187	
O		15.07833708		4.43512585		4.14266201		 0.00039941		 0.00005934		 0.00013187	
O		12.83932615		0.02557528		3.87398114		-0.00001361		 0.00028563		-0.00059832	
O		6.01529845		8.79352404		3.49417903		 0.00001361		-0.00028563		 0.00059832	
O		15.38915004		8.79352404		6.73276141		 0.00039941		-0.00005934		 0.00013187	
O		3.46547456		0.02557528		0.63539877		-0.00039941		 0.00005934		-0.00013187	
O		6.03267429		1.96136853		4.97178426		 0.00003750		 0.00026145		-0.00025291	
O		12.82195031		6.85773263		2.39637591		-0.00003750		-0.00026145		 0.00025291	
O		3.80739581		6.85773263		2.15194812		-0.00035933		-0.00027275		 0.00038867	
O		15.04722696		1.96136853		5.21621021		 0.00035933		 0.00027275		-0.00038867	
O		13.13276143		6.37091726		4.98647531		-0.00003750		 0.00026145		 0.00025291	
O		5.72186133		2.44818205		2.38168303		 0.00003750		-0.00026145		-0.00025291	
O		14.73641400		2.44818205		2.62611082		 0.00035933		-0.00027275		-0.00038867	
O		4.11820877		6.37091726		4.74204935		-0.00035933		 0.00027275		 0.00038867	
O		10.74664905		3.01084178		5.36386992		 0.00025859		 0.00035570		 0.00000237	
O		8.10797555		5.80825938		2.00428842		-0.00025859		-0.00035570		-0.00000237	
O		17.28414993		5.80825938		3.59556745		-0.00055281		-0.00070813		 0.00054133	
O		1.57047284		3.01084178		3.77259272		 0.00055281		 0.00070813		-0.00054133	
O		8.41878667		7.42039051		4.59438965		-0.00025859		 0.00035570		-0.00000237	
O		10.43583610		1.39870880		2.77377053		 0.00025859		-0.00035570		 0.00000237	
O		1.25966172		1.39870880		1.18249149		 0.00055281		-0.00070813		-0.00054133	
O		17.59496288		7.42039051		6.18566868		-0.00055281		 0.00070813		 0.00054133	
O		8.31286790		4.26491723		4.52041105		 0.00039799		 0.00042054		 0.00022233	
O		10.54175303		4.55418209		2.84774729		-0.00039799		-0.00042054		-0.00022233	
O		1.35065990		4.55418209		1.13214344		-0.00000964		 0.00045407		 0.00006880	
O		17.50396287		4.26491723		6.23601490		 0.00000964		-0.00045407		-0.00006880	
O		10.85256599		8.67446597		5.43784852		-0.00039799		 0.00042054		-0.00022233	
O		8.00205678		0.14463335		1.93031165		 0.00039799		-0.00042054		 0.00022233	
O		17.19315175		0.14463335		3.64591550		 0.00000964		 0.00045407		-0.00006880	
O		1.66147285		8.67446597		3.72224467		-0.00000964		-0.00045407		 0.00006880	
O		8.54869225		1.72060615		4.10452222		 0.00010889		-0.00035943		 0.00077251	
O		10.30593052		7.09849316		3.26363612		-0.00010889		 0.00035943		-0.00077251	
O		1.00667272		7.09849316		0.64667782		 0.00044442		 0.00055530		 0.00009855	
O		17.84795004		1.72060615		6.72148235		-0.00044442		-0.00055530		-0.00009855	
O		10.61674348		6.13015673		5.85373735		-0.00010889		-0.00035943		-0.00077251	
O		8.23788113		2.68894443		1.51442283		 0.00010889		 0.00035943		 0.00077251	
O		17.53713892		2.68894443		4.13138112		-0.00044442		 0.00055530		-0.00009855	
O		1.31748568		6.13015673		3.23677721		 0.00044442		-0.00055530		 0.00009855	
