# total energy = -49431.1610406 eV	

CRYSTAL	
PRIMVEC	
		18.23299464		0.00000000		-1.45863591	
		0.00000000		8.81910900		0.00000000	
		-0.41442490		0.00000000		5.18019239	
PRIMCOORD
   80 1	
Mg		6.50206827		5.76857442		3.93872120		-0.00008148		 0.00021536		-0.00032841	
Mg		11.31651427		3.05052726		-0.21716106		 0.00008148		-0.00021536		 0.00032841	
Mg		2.10362022		3.05052726		1.71707302		-0.00036430		 0.00025645		-0.00069789	
Mg		15.71496232		5.76857442		2.00448712		 0.00036430		-0.00025645		 0.00069789	
Mg		11.10930731		1.35902358		2.37293879		 0.00008148		 0.00021536		 0.00032841	
Mg		6.70927706		7.46007627		1.34862135		-0.00008148		-0.00021536		-0.00032841	
Mg		15.92216929		7.46007627		-0.58561273		 0.00036430		 0.00025645		 0.00069789	
Mg		1.89641326		1.35902358		4.30717470		-0.00036430		-0.00025645		-0.00069789	
Mg		6.72328268		4.29666638		1.30941222		-0.00030318		 0.00021241		-0.00017353	
Mg		11.09530170		4.52243347		2.41214792		 0.00030318		-0.00021241		 0.00017353	
Mg		1.88854070		4.52243347		4.26971422		-0.00025358		 0.00030744		-0.00030629	
Mg		15.93004367		4.29666638		-0.54815591		 0.00025358		-0.00030744		 0.00030629	
Mg		11.30250866		8.70621539		-0.17795194		 0.00030318		 0.00021241		 0.00017353	
Mg		6.51607571		0.11288446		3.89951207		-0.00030318		-0.00021241		-0.00017353	
Mg		15.72283488		0.11288446		2.04194578		 0.00025358		 0.00030744		 0.00030629	
Mg		2.09574950		8.70621539		1.67961436		-0.00025358		-0.00030744		-0.00030629	
Si		4.92928946		3.01436911		-0.13390294		 0.00025519		 0.00032375		-0.00016883	
Si		12.88929309		5.80473257		3.85546308		-0.00025519		-0.00032375		 0.00016883	
Si		3.93806272		5.80473257		2.51891945		 0.00052457		 0.00032640		 0.00008661	
Si		13.88052166		3.01436911		1.20264069		-0.00052457		-0.00032640		-0.00008661	
Si		13.09650188		7.42391812		1.26536323		-0.00025519		 0.00032375		 0.00016883	
Si		4.72208249		1.39518173		2.45619691		 0.00025519		-0.00032375		-0.00016883	
Si		13.67331286		1.39518173		3.79274055		-0.00052457		 0.00032640		-0.00008661	
Si		4.14527151		7.42391812		-0.07118041		 0.00052457		-0.00032640		 0.00008661	
Si		8.30440230		2.97556422		3.44350567		 0.00071246		-0.00005617		-0.00009508	
Si		9.51418024		5.84353563		0.27805447		-0.00071246		 0.00005617		 0.00009508	
Si		0.35781348		5.84353563		1.50571028		 0.00010301		-0.00039168		 0.00005170	
Si		17.46077090		2.97556422		2.21585169		-0.00010301		 0.00039168		-0.00005170	
Si		9.30697145		7.38511323		2.86815433		-0.00071246		-0.00005617		 0.00009508	
Si		8.51161110		1.43398662		0.85340581		 0.00071246		 0.00005617		-0.00009508	
Si		17.66797786		1.43398662		-0.37425000		-0.00010301		-0.00039168		-0.00005170	
Si		0.15060651		7.38511323		4.09581014		 0.00010301		 0.00039168		 0.00005170	
O		3.33166563		3.00466743		-0.09153308		 0.00027987		-0.00054774		-0.00029893	
O		14.48691874		5.81443242		3.81309322		-0.00027987		 0.00054774		 0.00029893	
O		5.54944522		5.81443242		2.30456609		 0.00027370		 0.00032725		 0.00006812	
O		12.26913732		3.00466743		1.41699222		-0.00027370		-0.00032725		-0.00006812	
O		14.69412753		7.41421827		1.22299337		-0.00027987		-0.00054774		 0.00029893	
O		3.12445684		1.40488341		2.49856677		 0.00027987		 0.00054774		-0.00029893	
O		12.06192853		1.40488341		4.00709207		-0.00027370		 0.00032725		-0.00006812	
O		5.75665401		7.41421827		-0.28553376		 0.00027370		-0.00032725		 0.00006812	
O		5.65993536		4.43512567		-0.23147214		 0.00051654		 0.00022681		-0.00005864	
O		12.15864719		4.38397418		3.95303228		-0.00051654		-0.00022681		 0.00005864	
O		3.21371632		4.38397418		2.53774846		 0.00016898		-0.00015402		-0.00024899	
O		14.60486805		4.43512567		1.18381168		-0.00016898		 0.00015402		 0.00024899	
O		12.36585598		0.02557483		1.36293242		-0.00051654		 0.00022681		 0.00005864	
O		5.45272839		8.79352502		2.35862772		 0.00051654		-0.00022681		-0.00005864	
O		14.39765926		8.79352502		3.77391153		-0.00016898		-0.00015402		 0.00024899	
O		3.42092329		0.02557483		-0.05235139		 0.00016898		 0.00015402		-0.00024899	
O		5.17068826		1.96136732		3.86868766		 0.00019434		 0.00009843		-0.00036559	
O		12.64789428		6.85773253		-0.14712752		-0.00019434		-0.00009843		 0.00036559	
O		3.46343033		6.85773253		1.43174411		 0.00039757		-0.00049745		-0.00021242	
O		14.35515222		1.96136732		2.28981420		-0.00039757		 0.00049745		 0.00021242	
O		12.44068732		6.37091816		2.44297234		-0.00019434		 0.00009843		 0.00036559	
O		5.37789522		2.44818169		1.27858780		 0.00019434		-0.00009843		-0.00036559	
O		14.56236101		2.44818169		-0.30028566		-0.00039757		-0.00049745		 0.00021242	
O		3.25622336		6.37091816		4.02184580		 0.00039757		 0.00049745		-0.00021242	
O		9.91988936		3.01084073		3.31375118		 0.00043416		 0.00036576		 0.00039223	
O		7.89869501		5.80825912		0.40780713		-0.00043416		-0.00036576		-0.00039223	
O		16.97541069		5.80825912		0.17578625		 0.00025068		 0.00045281		 0.00017278	
O		0.84317369		3.01084073		3.54577206		-0.00025068		-0.00045281		-0.00017278	
O		7.69148622		7.42039157		2.99790881		-0.00043416		 0.00036576		-0.00039223	
O		10.12709633		1.39870828		0.72365133		 0.00043416		-0.00036576		 0.00039223	
O		1.05038065		1.39870828		0.95567220		-0.00025068		 0.00045281		-0.00017278	
O		16.76820189		7.42039157		2.76588611		 0.00025068		-0.00045281		 0.00017278	
O		7.59800146		4.26491642		2.94362220		-0.00012107		 0.00012776		-0.00037285	
O		10.22058109		4.55418343		0.77793793		 0.00012107		-0.00012776		 0.00037285	
O		1.15381219		4.55418343		0.88563317		-0.00042567		-0.00090267		-0.00006884	
O		16.66477218		4.26491642		2.83592514		 0.00042567		 0.00090267		 0.00006884	
O		10.01337412		8.67446726		3.36803779		 0.00012107		 0.00012776		 0.00037285	
O		7.80521025		0.14463259		0.35352235		-0.00012107		-0.00012776		-0.00037285	
O		16.87197914		0.14463259		0.24582529		 0.00042567		-0.00090267		 0.00006884	
O		0.94660340		8.67446726		3.47573485		-0.00042567		 0.00090267		-0.00006884	
O		7.92396072		1.72060689		2.46975256		-0.00064274		 0.00009861		-0.00027338	
O		9.89462366		7.09849479		1.25180758		 0.00064274		-0.00009861		 0.00027338	
O		0.89996071		7.09849479		0.45814831		 0.00004019		 0.00024668		 0.00034770	
O		16.91862367		1.72060689		3.26341183		-0.00004019		-0.00024668		-0.00034770	
O		9.68741486		6.13015773		3.84190743		 0.00064274		 0.00009861		 0.00027338	
O		8.13116951		2.68894395		-0.12034729		-0.00064274		-0.00009861		-0.00027338	
O		17.12583063		2.68894395		0.67331014		-0.00004019		 0.00024668		-0.00034770	
O		0.69275374		6.13015773		3.04824817		 0.00004019		-0.00024668		 0.00034770	
