# total energy = -10312.8795717 eV

CRYSTAL
PRIMVEC
		3.50999882		0.28079920		0.00000000
		0.28079920		3.50999882		0.00000000
		0.00000000		0.00000000		10.44999799
PRIMECORD
   14 1
Si		0.00000000		0.00000000		0.00000000		0.00000000		0.00000000		0.00000000
Si		1.89540006		1.89540006		5.22499970		0.00000000		0.00000000		0.00000000
Mg		0.00000000		0.00000000		3.90829987		0.00000000		0.00000000		-0.00043147
Mg		0.00000000		0.00000000		6.54169953		0.00000000		0.00000000		 0.00043147
Mg		1.89540006		1.89540006		9.13329957		0.00000000		0.00000000		-0.00034334
Mg		1.89540006		1.89540006		1.31669983		0.00000000		0.00000000		 0.00034334
O		0.14039995		1.75499976		0.00000000		0.00000000		0.00000000		0.00000000
O		1.75499976		0.14039995		0.00000000		0.00000000		0.00000000		0.00000000
O		1.75499976		0.14039995		5.22499970		0.00000000		0.00000000		0.00000000
O		0.14039995		1.75499976		5.22499970		0.00000000		0.00000000		0.00000000
O		0.00000000		0.00000000		1.72111477		0.00000000		0.00000000		-0.00061867
O		0.00000000		0.00000000		8.72888463		0.00000000		0.00000000		 0.00061867
O		1.89540006		1.89540006		6.94611447		0.00000000		0.00000000		-0.00051352
O		1.89540006		1.89540006		3.50388493		0.00000000		0.00000000		 0.00051352
