# total energy = -66815.1707959 eV	

CRYSTAL	
PRIMVEC	
		18.54413027		-0.00005503		0.00000000	
		-0.00001834		6.82139627		0.00000000	
		0.00000000		0.00000000		11.04674308	
PRIMCOORD
   112 1	
Ca		14.31962910		6.79572102		2.54872166		-0.00005914		-0.00015306		 0.00010319	
Ca		4.22447549		0.02561105		8.49802325		 0.00005917		 0.00015308		-0.00010322	
Ca		4.22447549		0.02561105		2.54872166		 0.00005915		 0.00015309		 0.00010320	
Ca		14.31962910		6.79572102		8.49802325		-0.00005918		-0.00015311		-0.00010321	
Ca		13.49648927		3.38503939		2.97460218		 0.00006362		-0.00015705		-0.00009616	
Ca		5.04761532		3.43629268		8.07214273		-0.00006366		 0.00015703		 0.00009620	
Ca		5.04761532		3.43629451		2.97460218		-0.00006359		 0.00015702		-0.00009619	
Ca		13.49648927		3.38503939		8.07214273		 0.00006362		-0.00015701		 0.00009622	
Ca		7.62821781		1.12255912		8.25263260		 0.00016171		-0.00012278		-0.00039342	
Ca		10.91588678		5.69877295		2.79411231		-0.00016175		 0.00012279		 0.00039342	
Ca		10.91588678		5.69877295		8.25263260		-0.00016168		 0.00012278		-0.00039342	
Ca		7.62821781		1.12256096		2.79411231		 0.00016169		-0.00012278		 0.00039344	
Ca		1.64370241		4.53318939		8.31762326		-0.00016550		-0.00013166		 0.00038803	
Ca		16.90040218		2.28814268		2.72912165		 0.00016554		 0.00013167		-0.00038806	
Ca		16.90040218		2.28814268		8.31762326		 0.00016549		 0.00013163		 0.00038800	
Ca		1.64370241		4.53318939		2.72912165		-0.00016551		-0.00013167		-0.00038803	
Ca		6.16898763		5.44449309		0.00000000		 0.00058530		-0.00007704		-0.00000001	
Ca		12.37511696		1.37683898		0.00000000		-0.00058531		 0.00007706		-0.00000004	
Ca		3.10293810		2.03423703		5.52337337		-0.00057755		-0.00007908		 0.00000001	
Ca		15.44116466		4.78709504		5.52337337		 0.00057756		 0.00007908		-0.00000001	
Ca		12.50214867		1.16885052		5.52337337		 0.00020314		-0.00006298		 0.00000003	
Ca		6.04195592		5.65248155		5.52337154		-0.00020314		 0.00006298		 0.00000005	
Ca		15.31417331		4.57945878		0.00000000		-0.00020749		-0.00005836		-0.00000003	
Ca		3.22993128		2.24187513		0.00000000		 0.00020749		 0.00005837		-0.00000003	
Ca		9.27205229		3.41066695		0.00000000		0.00000000		 0.00000001		-0.00000002	
Ca		0.00000000		0.00000000		5.52337154		-0.00000002		0.00000000		 0.00000001	
Ca		9.27205229		3.41066512		5.52337154		 0.00000001		-0.00000001		-0.00000002	
Ca		0.00000000		0.00000000		0.00000000		-0.00000000		 0.00000002		-0.00000006	
Si		7.75563656		4.92531622		8.30325671		 0.00017610		-0.00003773		-0.00022389	
Si		10.78846619		1.89601585		2.74348820		-0.00017617		 0.00003756		 0.00022387	
Si		10.78846619		1.89601585		8.30325671		-0.00017607		 0.00003779		-0.00022388	
Si		7.75563656		4.92531622		2.74348820		 0.00017613		-0.00003767		 0.00022388	
Si		1.51623413		1.51447500		8.26686891		-0.00017883		-0.00004233		 0.00021857	
Si		17.02787046		5.30685707		2.77987600		 0.00017887		 0.00004223		-0.00021856	
Si		17.02787046		5.30685707		8.26686891		 0.00017884		 0.00004228		 0.00021857	
Si		1.51623413		1.51447500		2.77987600		-0.00017889		-0.00004214		-0.00021856	
Si		12.30141135		5.02336718		5.52337337		-0.00002789		 0.00037270		 0.00000008	
Si		6.24269140		1.79796672		5.52337337		 0.00002787		-0.00037267		 0.00000007	
Si		15.51476387		1.61248928		0.00000000		 0.00002853		 0.00037468		-0.00000009	
Si		3.02934072		5.20884279		0.00000000		-0.00002853		-0.00037469		-0.00000006	
Si		6.26802730		1.92376758		0.00000000		 0.00013929		 0.00004310		-0.00000009	
Si		12.27607729		4.89756449		0.00000000		-0.00013929		-0.00004310		-0.00000015	
Si		3.00410387		5.33483442		5.52337337		-0.00014322		 0.00004053		 0.00000015	
Si		15.54000072		1.48649948		5.52337154		 0.00014325		-0.00004054		 0.00000013	
Mg		9.27206147		-0.00002752		5.52337337		-0.00000000		-0.00000000		0.00000000	
Mg		0.00000000		3.41069447		0.00000000		-0.00000001		-0.00000001		-0.00000000	
Mg		9.27206147		-0.00002752		0.00000000		 0.00000001		-0.00000001		0.00000000	
Mg		0.00000000		3.41069447		5.52337154		-0.00000001		0.00000000		-0.00000000	
O		5.33851778		1.78137695		1.35156728		 0.00023686		 0.00009622		 0.00013160	
O		13.20558498		5.03995512		9.69517763		-0.00023693		-0.00009622		-0.00013147	
O		13.20558498		5.03995512		1.35156728		-0.00023684		-0.00009628		 0.00013161	
O		5.33851778		1.78137695		9.69517763		 0.00023687		 0.00009628		-0.00013145	
O		3.93373813		5.19246947		4.17186663		-0.00023657		 0.00004141		-0.00012955	
O		14.61036646		1.62886260		6.87487828		 0.00023664		-0.00004140		 0.00012943	
O		14.61036646		1.62886260		4.17186663		 0.00023653		-0.00004136		-0.00012951	
O		3.93373813		5.19246947		6.87487828		-0.00023659		 0.00004138		 0.00012937	
O		12.88379775		5.81837374		4.19891947		 0.00010283		-0.00016395		-0.00026652	
O		5.66030501		1.00295833		6.84782728		-0.00010278		 0.00016401		 0.00026641	
O		5.66030684		1.00295833		4.19891947		-0.00010291		 0.00016393		-0.00026658	
O		12.88379775		5.81837374		6.84782728		 0.00010284		-0.00016400		 0.00026648	
O		14.93199410		2.40742980		1.32435118		-0.00009045		-0.00017934		 0.00026370	
O		3.61210865		4.41390227		9.72239373		 0.00009037		 0.00017940		-0.00026365	
O		3.61210865		4.41390227		1.32435118		 0.00009034		 0.00017940		 0.00026373	
O		14.93199410		2.40742980		9.72239190		-0.00009026		-0.00017945		-0.00026366	
O		8.84040461		5.31067250		9.49803196		-0.00013288		-0.00010687		-0.00009257	
O		9.70369998		1.51065957		1.54871295		 0.00013284		 0.00010689		 0.00009261	
O		9.70369998		1.51065957		9.49803196		 0.00013281		 0.00010685		-0.00009264	
O		8.84040461		5.31067250		1.54871295		-0.00013277		-0.00010685		 0.00009263	
O		0.43159632		1.90015413		7.07204781		 0.00013531		-0.00012528		 0.00008779	
O		18.11250827		4.92117795		3.97469711		-0.00013529		 0.00012531		-0.00008778	
O		18.11250827		4.92117978		7.07204781		-0.00013537		 0.00012529		 0.00008775	
O		0.43159632		1.90015413		3.97469711		 0.00013537		-0.00012531		-0.00008771	
O		6.26167498		5.51078063		8.73696436		 0.00017173		-0.00021748		 0.00005183	
O		12.28242961		1.31055327		2.30978056		-0.00017166		 0.00021747		-0.00005180	
O		12.28242961		1.31055327		8.73696436		-0.00017164		 0.00021747		 0.00005184	
O		6.26167498		5.51077880		2.30978056		 0.00017164		-0.00021746		-0.00005180	
O		3.01024340		2.10011551		7.83343458		-0.00017722		-0.00022850		-0.00004867	
O		15.53386118		4.72121656		3.21331033		 0.00017715		 0.00022850		 0.00004867	
O		15.53386118		4.72121656		7.83343458		 0.00017722		 0.00022852		-0.00004862	
O		3.01024340		2.10011551		3.21331033		-0.00017718		-0.00022852		 0.00004864	
O		7.00501736		3.36805157		0.00000000		-0.00042026		 0.00034404		-0.00000000	
O		11.53908723		3.45328050		0.00000000		 0.00042027		-0.00034404		 0.00000002	
O		2.26707712		6.77909640		5.52337337		 0.00042290		 0.00035209		0.00000000	
O		16.27702563		0.04223567		5.52337337		-0.00042290		-0.00035209		0.00000000	
O		7.59966081		3.35782512		7.90156930		 0.00011087		-0.00023046		-0.00007330	
O		10.94444378		3.46350695		3.14517561		-0.00011085		 0.00023060		 0.00007332	
O		10.94444378		3.46350695		7.90156930		-0.00011091		 0.00023040		-0.00007329	
O		7.59966081		3.35782512		3.14517561		 0.00011088		-0.00023051		 0.00007328	
O		1.67199710		6.76831781		8.66843709		-0.00010920		-0.00020487		 0.00004999	
O		16.87210749		0.05301426		2.37830782		 0.00010917		 0.00020498		-0.00004997	
O		16.87210749		0.05301426		8.66843709		 0.00010917		 0.00020491		 0.00004994	
O		1.67199710		6.76831781		2.37830782		-0.00010913		-0.00020503		-0.00004992	
O		7.35402803		0.67755561		0.00000000		 0.00007942		-0.00004059		-0.00000002	
O		11.19007472		6.14377646		0.00000000		-0.00007941		 0.00004057		 0.00000005	
O		1.91802610		4.08866097		5.52337337		-0.00008658		-0.00006646		-0.00000002	
O		16.62607849		2.73267110		5.52337337		 0.00008658		 0.00006645		-0.00000001	
O		10.67109963		5.22254898		5.52337154		-0.00020573		 0.00032469		-0.00000001	
O		7.87300496		1.59878309		5.52337337		 0.00020575		-0.00032472		 0.00000004	
O		17.14498022		1.81221771		0.00000000		 0.00020889		 0.00030769		-0.00000003	
O		1.39912437		5.00911436		0.00000000		-0.00020891		-0.00030769		 0.00000006	
O		12.93029276		3.51494000		5.52337154		 0.00030825		 0.00045642		-0.00000007	
O		5.61381000		3.30639390		5.52337337		-0.00030825		-0.00045646		-0.00000003	
O		14.88680698		0.10370440		0.00000000		-0.00032056		 0.00051706		-0.00000001	
O		3.65729761		6.71762767		0.00000000		 0.00032055		-0.00051704		 0.00000003	
O		8.17824095		5.79121451		6.95648440		 0.00002991		 0.00023961		-0.00012459	
O		10.36586364		1.03011756		4.09026052		-0.00002990		-0.00023954		 0.00012455	
O		10.36586364		1.03011756		6.95648440		-0.00002996		-0.00023966		-0.00012458	
O		8.17824095		5.79121451		4.09026052		 0.00002986		 0.00023965		 0.00012457	
O		1.09339495		2.38009447		9.61372010		-0.00002952		 0.00029272		 0.00012196	
O		17.45070780		4.44123760		1.43302481		 0.00002948		-0.00029272		-0.00012193	
O		17.45070780		4.44123760		9.61372010		 0.00002949		-0.00029267		 0.00012194	
O		1.09339679		2.38009447		1.43302481		-0.00002940		 0.00029264		-0.00012193	
