# total energy = -66811.0489908 eV	

CRYSTAL	
PRIMVEC	
		19.18222373		-0.00018343		0.00000000	
		-0.00007337		7.07717662		0.00000000	
		0.00000000		0.00000000		11.21364966	
PRIMCOORD
   112 1	
Ca		14.67339438		7.06129124		2.59017775		 0.00036187		 0.00033137		-0.00006322	
Ca		4.50876515		0.01570745		8.62346825		-0.00036167		-0.00033138		 0.00006327	
Ca		4.50875965		0.01570745		2.59017958		-0.00036184		-0.00033131		-0.00006318	
Ca		14.67338887		7.06128940		8.62346825		 0.00036166		 0.00033133		 0.00006325	
Ca		14.09986051		3.52240760		3.01674614		-0.00033721		 0.00035175		 0.00006192	
Ca		5.08230085		3.55458926		8.19690169		 0.00033739		-0.00035179		-0.00006184	
Ca		5.08229535		3.55458926		3.01674614		 0.00033721		-0.00035178		 0.00006191	
Ca		14.09985500		3.52240760		8.19690169		-0.00033738		 0.00035181		-0.00006185	
Ca		8.09911486		1.31210513		8.15371399		 0.00021129		-0.00031702		-0.00029713	
Ca		11.08304099		5.76489723		3.05992833		-0.00021121		 0.00031722		 0.00029689	
Ca		11.08303733		5.76489356		8.15371399		-0.00021132		 0.00031696		-0.00029710	
Ca		8.09910936		1.31210146		3.05992650		 0.00021116		-0.00031715		 0.00029683	
Ca		1.49182090		4.85032840		8.66634961		-0.00019114		-0.00029208		 0.00032282	
Ca		17.69033679		2.22666478		2.54728721		 0.00019128		 0.00029199		-0.00032303	
Ca		17.69033129		2.22666845		8.66634961		 0.00019115		 0.00029208		 0.00032285	
Ca		1.49181724		4.85033391		2.54728905		-0.00019130		-0.00029198		-0.00032308	
Ca		6.79535598		5.55561923		0.00000000		-0.00028980		 0.00004372		 0.00000013	
Ca		12.38679804		1.52137762		0.00000000		 0.00028979		-0.00004372		 0.00000005	
Ca		2.79563665		2.01606423		5.60682483		 0.00032131		 0.00005683		 0.00000005	
Ca		16.38651921		5.06093263		5.60682300		-0.00032129		-0.00005684		 0.00000001	
Ca		13.10209153		1.26680977		5.60682300		-0.00022505		 0.00033219		 0.00000002	
Ca		6.08006433		5.81018525		5.60682300		 0.00022505		-0.00033221		-0.00000002	
Ca		15.67059655		4.80461299		0.00000000		 0.00024273		 0.00036964		-0.00000001	
Ca		3.51155931		2.27238387		0.00000000		-0.00024272		-0.00036961		-0.00000002	
Ca		9.59107701		3.53849843		0.00000000		-0.00000002		 0.00000001		-0.00000002	
Ca		0.00000000		0.00000000		5.60682116		 0.00000001		0.00000000		-0.00000007	
Ca		9.59108618		3.53849109		5.60680098		 0.00000014		-0.00000009		-0.00000086	
Ca		0.00000000		0.00000000		-0.00002752		 0.00000009		 0.00000005		-0.00000107	
Si		8.00405937		5.11722118		8.40084543		-0.00003170		-0.00015177		-0.00000891	
Si		11.17809098		1.95977751		2.81280240		 0.00003159		 0.00015184		 0.00000897	
Si		11.17809282		1.95977567		8.40084543		 0.00003171		 0.00015178		-0.00000891	
Si		8.00406304		5.11721935		2.81280057		-0.00003164		-0.00015186		 0.00000893	
Si		1.58764865		1.57813210		8.41956303		-0.00000020		-0.00016810		 0.00000012	
Si		17.59450170		5.49886292		2.79408296		 0.00000013		 0.00016803		-0.00000008	
Si		17.59450537		5.49886476		8.41956303		 0.00000022		 0.00016810		 0.00000013	
Si		1.58765049		1.57813393		2.79408296		-0.00000014		-0.00016804		-0.00000009	
Si		12.72303253		5.27556690		5.60682300		-0.00030564		 0.00042524		 0.00000001	
Si		6.45911966		1.80143179		5.60682300		 0.00030563		-0.00042522		-0.00000003	
Si		16.05072312		1.73620450		0.00000000		 0.00031539		 0.00041807		-0.00000007	
Si		3.13143090		5.34079236		0.00000000		-0.00031539		-0.00041808		-0.00000005	
Si		6.51967488		1.94624925		0.00000000		 0.00044734		-0.00003548		 0.00000003	
Si		12.66247914		5.13074760		0.00000000		-0.00044735		 0.00003548		0.00000000	
Si		3.07162042		5.48342145		5.60682483		-0.00045268		 0.00008655		 0.00000009	
Si		16.11053361		1.59357540		5.60682300		 0.00045271		-0.00008656		 0.00000009	
Mg		9.59111003		-0.00009172		5.60682300		0.00000000		-0.00000002		-0.00000002	
Mg		-0.00003485		3.53859014		0.00000000		-0.00000002		-0.00000003		 0.00000003	
Mg		9.59111186		-0.00009172		0.00000000		 0.00000002		-0.00000001		 0.00000001	
Mg		-0.00003485		3.53859014		5.60682300		 0.00000001		 0.00000001		-0.00000009	
O		5.52173714		1.87166499		1.33364945		-0.00031098		-0.00017350		-0.00029515	
O		13.66041688		5.20533003		9.87999654		 0.00031094		 0.00017338		 0.00029523	
O		13.66041688		5.20533186		1.33364945		 0.00031097		 0.00017342		-0.00029511	
O		5.52173531		1.87166683		9.87999838		-0.00031089		-0.00017336		 0.00029519	
O		4.06958567		5.40883169		4.27316988		 0.00026742		-0.00009253		 0.00030933	
O		15.11256835		1.66816333		6.94047795		-0.00026742		 0.00009265		-0.00030921	
O		15.11256835		1.66816517		4.27316988		-0.00026751		 0.00009252		 0.00030931	
O		4.06958751		5.40883352		6.94047795		 0.00026753		-0.00009266		-0.00030921	
O		13.19357556		6.11604307		4.25737438		 0.00012051		 0.00007943		-0.00044067	
O		5.98857663		0.96095562		6.95627161		-0.00012050		-0.00007947		 0.00044065	
O		5.98857663		0.96095195		4.25737438		-0.00012050		-0.00007945		-0.00044067	
O		13.19357556		6.11604307		6.95627161		 0.00012048		 0.00007950		 0.00044063	
O		15.57996181		2.57646239		1.34948163		-0.00014669		 0.00012827		 0.00042507	
O		3.60219038		4.50053080		9.86416252		 0.00014672		-0.00012838		-0.00042506	
O		3.60219221		4.50053263		1.34948163		 0.00014667		-0.00012827		 0.00042506	
O		15.57996181		2.57646605		9.86416252		-0.00014669		 0.00012843		-0.00042505	
O		9.01512182		5.48199984		9.69520515		-0.00004756		 0.00010282		-0.00000574	
O		10.16703221		1.59499702		1.51844084		 0.00004756		-0.00010277		 0.00000574	
O		10.16703221		1.59499702		9.69520515		 0.00004759		-0.00010276		-0.00000570	
O		9.01512182		5.48199984		1.51844084		-0.00004759		 0.00010271		 0.00000568	
O		0.57698243		1.94290525		7.12497585		-0.00009457		 0.00017733		 0.00002285	
O		18.60516976		5.13408977		4.08867198		 0.00009463		-0.00017730		-0.00002280	
O		18.60516976		5.13409161		7.12497218		 0.00009460		-0.00017739		 0.00002284	
O		0.57698426		1.94290525		4.08867381		-0.00009466		 0.00017741		-0.00002284	
O		6.45125951		5.53669618		8.83632321		-0.00025310		-0.00001821		 0.00063684	
O		12.73089268		1.54030617		2.37732645		 0.00025314		 0.00001828		-0.00063675	
O		12.73089451		1.54030251		8.83632137		 0.00025310		 0.00001826		 0.00063686	
O		6.45126134		5.53669251		2.37732645		-0.00025318		-0.00001819		-0.00063678	
O		3.14042467		1.99818675		7.98441176		 0.00015300		-0.00006962		-0.00062874	
O		16.04172752		5.07880644		3.22923790		-0.00015310		 0.00006936		 0.00062883	
O		16.04172936		5.07881011		7.98440992		-0.00015300		 0.00006955		-0.00062874	
O		3.14042650		1.99819042		3.22923790		 0.00015308		-0.00006936		 0.00062882	
O		7.32408060		3.36186618		0.00000000		 0.00052184		 0.00003684		 0.00000005	
O		11.85807343		3.71513251		0.00000000		-0.00052184		-0.00003681		 0.00000009	
O		2.26733944		6.89913743		5.60682483		-0.00057616		 0.00007754		 0.00000013	
O		16.91481459		0.17785943		5.60682483		 0.00057617		-0.00007753		 0.00000008	
O		8.00794267		3.56155608		7.90304962		-0.00011907		-0.00048472		 0.00001127	
O		11.17420035		3.51544078		3.31060371		 0.00011867		 0.00048476		-0.00001111	
O		11.17420768		3.51544078		7.90304595		 0.00011901		 0.00048472		 0.00001122	
O		8.00795184		3.56155608		3.31060188		-0.00011867		-0.00048472		-0.00001113	
O		1.58409370		7.09931527		8.91642149		 0.00006636		-0.00035897		-0.00001727	
O		17.59804748		-0.02232025		2.29723184		-0.00006672		 0.00035893		 0.00001760	
O		17.59806032		-0.02231841		8.91642149		-0.00006635		 0.00035891		-0.00001733	
O		1.58410471		7.09931710		2.29723000		 0.00006665		-0.00035891		 0.00001760	
O		7.60252422		0.68459214		0.00000000		 0.00082993		-0.00001896		 0.00000002	
O		11.57963164		6.39240472		0.00000000		-0.00082993		 0.00001898		 0.00000008	
O		1.98832717		4.22201381		5.60682666		-0.00073863		 0.00015524		 0.00000009	
O		17.19382685		2.85498305		5.60682666		 0.00073866		-0.00015523		 0.00000009	
O		11.03913240		5.40322595		5.60682300		-0.00056226		-0.00025224		-0.00000011	
O		8.14301979		1.67377091		5.60682300		 0.00056227		 0.00025224		-0.00000001	
O		17.73455539		1.86441385		0.00000000		 0.00057100		-0.00019456		-0.00000005	
O		1.44759864		5.21258301		0.00000000		-0.00057102		 0.00019457		-0.00000002	
O		13.38030035		3.76868973		5.60682300		 0.00018391		 0.00061360		 0.00000001	
O		5.80185184		3.30830529		5.60682116		-0.00018393		-0.00061366		 0.00000003	
O		15.39387721		0.22917508		0.00000000		-0.00027170		 0.00055267		-0.00000006	
O		3.78827498		6.84782177		0.00000000		 0.00027166		-0.00055270		-0.00000009	
O		8.53218416		6.07973782		7.14683201		 0.00001619		 0.00049557		-0.00019705	
O		10.64996803		0.99726270		4.06681582		-0.00001629		-0.00049551		 0.00019722	
O		10.64996803		0.99725904		7.14683017		-0.00001627		-0.00049551		-0.00019709	
O		8.53218783		6.07973782		4.06681398		 0.00001632		 0.00049546		 0.00019721	
O		1.05875344		2.54018648		9.67367734		-0.00002781		 0.00055799		 0.00016294	
O		18.12339875		4.53680671		1.53997232		 0.00002776		-0.00055819		-0.00016287	
O		18.12340241		4.53680854		9.67367183		 0.00002788		-0.00055801		 0.00016288	
O		1.05875344		2.54019015		1.53997232		-0.00002782		 0.00055815		-0.00016285	
