# total energy = -66814.0008973 eV	

CRYSTAL	
PRIMVEC	
		18.75447402		0.00014675		0.00000000	
		0.00005503		6.92841166		0.00000000	
		0.00000000		0.00000000		11.13539672	
PRIMCOORD
   112 1	
Ca		14.44129535		6.89510738		2.57131890		-0.00000521		 0.00061327		 0.00011113	
Ca		4.31323370		0.03345102		8.56407232		 0.00000533		-0.00061332		-0.00011113	
Ca		4.31323186		0.03345102		2.57131890		 0.00000520		-0.00061325		 0.00011115	
Ca		14.44129535		6.89510738		8.56407232		-0.00000533		 0.00061328		-0.00011115	
Ca		13.69051840		3.43111801		2.99657757		-0.00002633		 0.00061295		-0.00011896	
Ca		5.06400882		3.49743856		8.13881181		 0.00002628		-0.00061291		 0.00011900	
Ca		5.06400882		3.49744040		2.99657941		 0.00002633		-0.00061297		-0.00011893	
Ca		13.69051840		3.43111801		8.13881181		-0.00002632		 0.00061297		 0.00011896	
Ca		7.78371297		1.20395245		8.23184770		 0.00022891		 0.00047962		 0.00011339	
Ca		10.97081425		5.72460596		2.90354536		-0.00022896		-0.00047961		-0.00011345	
Ca		10.97081425		5.72460596		8.23184770		-0.00022887		-0.00047954		 0.00011338	
Ca		7.78371297		1.20395245		2.90354352		 0.00022886		 0.00047958		-0.00011337	
Ca		1.59306546		4.66833621		8.47104378		-0.00021832		 0.00048100		-0.00007285	
Ca		17.16146359		2.26022036		2.66434561		 0.00021837		-0.00048111		 0.00007283	
Ca		17.16146176		2.26022036		8.47104378		 0.00021840		-0.00048110		-0.00007293	
Ca		1.59306362		4.66833804		2.66434561		-0.00021846		 0.00048117		 0.00007281	
Ca		6.37324320		5.51973404		0.00000000		 0.00041297		-0.00023247		 0.00000003	
Ca		12.38128401		1.40882253		0.00000000		-0.00041298		 0.00023246		-0.00000001	
Ca		3.00356090		2.05571715		5.56769653		-0.00044659		-0.00028389		0.00000000	
Ca		15.75096631		4.87284126		5.56769469		 0.00044661		 0.00028390		-0.00000002	
Ca		12.70192112		1.20078454		5.56769469		-0.00011152		-0.00000910		 0.00000003	
Ca		6.05260793		5.72777203		5.56769653		 0.00011149		 0.00000907		-0.00000004	
Ca		15.42906718		4.66518481		0.00000000		 0.00012664		 0.00001939		 0.00000004	
Ca		3.32546187		2.26337359		0.00000000		-0.00012657		-0.00001937		-0.00000005	
Ca		9.37726453		3.46427920		0.00000000		-0.00000003		 0.00000002		-0.00000002	
Ca		0.00000000		0.00000000		5.56769469		 0.00000002		 0.00000002		-0.00000000	
Ca		9.37726636		3.46427737		5.56769469		 0.00000006		-0.00000005		-0.00000003	
Ca		0.00000000		0.00000000		0.00000000		 0.00000006		 0.00000003		-0.00000042	
Si		7.82824157		5.01819435		8.35713678		-0.00002020		-0.00028489		-0.00027284	
Si		10.92628565		1.91036406		2.77825444		 0.00002021		 0.00028482		 0.00027285	
Si		10.92628565		1.91036406		8.35713678		 0.00002019		 0.00028482		-0.00027281	
Si		7.82824157		5.01819435		2.77825444		-0.00002022		-0.00028479		 0.00027283	
Si		1.54922840		1.55419763		8.34578038		 0.00002259		-0.00029175		 0.00029391	
Si		17.20529881		5.37435894		2.78961084		-0.00002261		 0.00029170		-0.00029388	
Si		17.20529881		5.37435894		8.34578038		-0.00002257		 0.00029180		 0.00029389	
Si		1.54923024		1.55419763		2.78961084		 0.00002266		-0.00029175		-0.00029389	
Si		12.45111366		5.12364687		5.56769653		-0.00013150		 0.00043791		0.00000000	
Si		6.30341355		1.80491153		5.56769653		 0.00013146		-0.00043789		-0.00000002	
Si		15.68073127		1.66048478		0.00000000		 0.00011485		 0.00043758		-0.00000000	
Si		3.07379594		5.26807362		0.00000000		-0.00011483		-0.00043759		-0.00000000	
Si		6.35684053		1.94947219		0.00000000		 0.00002083		-0.00016501		 0.00000001	
Si		12.39768668		4.97908622		0.00000000		-0.00002087		 0.00016500		 0.00000005	
Si		3.02068447		5.41420264		5.56769653		-0.00002548		-0.00019835		-0.00000002	
Si		15.73384275		1.51435393		5.56769653		 0.00002554		 0.00019832		 0.00000002	
Mg		9.37723518		0.00007521		5.56769653		-0.00000001		0.00000000		-0.00000001	
Mg		0.00002752		3.46420216		0.00000000		 0.00000001		-0.00000000		 0.00000002	
Mg		9.37723701		0.00007704		0.00000000		-0.00000000		-0.00000000		 0.00000002	
Mg		0.00002752		3.46420216		5.56769469		-0.00000001		-0.00000001		-0.00000005	
O		5.40489336		1.82907529		1.34807103		-0.00017733		-0.00012453		 0.00029113	
O		13.34963385		5.09948312		9.78732203		 0.00017742		 0.00012456		-0.00029113	
O		13.34963385		5.09948312		1.34807103		 0.00017735		 0.00012456		 0.00029113	
O		5.40489336		1.82907529		9.78732203		-0.00017744		-0.00012455		-0.00029109	
O		3.97259679		5.29387178		4.21957597		 0.00018754		-0.00018817		-0.00028512	
O		14.78193043		1.63468479		6.91581525		-0.00018757		 0.00018825		 0.00028518	
O		14.78193043		1.63468479		4.21957597		-0.00018754		 0.00018821		-0.00028513	
O		3.97259679		5.29387178		6.91581525		 0.00018756		-0.00018810		 0.00028513	
O		12.98029136		5.94109475		4.23163309		 0.00030585		 0.00006521		-0.00039138	
O		5.77423586		0.98746183		6.90375997		-0.00030586		-0.00006527		 0.00039138	
O		5.77423769		0.98746183		4.23163125		-0.00030598		-0.00006526		-0.00039141	
O		12.98029136		5.94109475		6.90375997		 0.00030597		 0.00006527		 0.00039142	
O		15.15242672		2.47867740		1.33596255		-0.00033614		 0.00002169		 0.00039495	
O		3.60209866		4.44987917		9.79942683		 0.00033601		-0.00002173		-0.00039502	
O		3.60210049		4.44987917		1.33596255		 0.00033600		-0.00002174		 0.00039493	
O		15.15242672		2.47867740		9.79942683		-0.00033591		 0.00002174		-0.00039496	
O		8.90171192		5.38767625		9.57814675		-0.00052362		-0.00004682		 0.00034422	
O		9.85281713		1.54088032		1.55724447		 0.00052369		 0.00004687		-0.00034434	
O		9.85281713		1.54088032		9.57814675		 0.00052367		 0.00004686		 0.00034426	
O		8.90171192		5.38767625		1.55724447		-0.00052361		-0.00004687		-0.00034428	
O		0.47614143		1.92369971		7.12443655		 0.00053164		-0.00007739		-0.00033685	
O		18.27838579		5.00485686		4.01095467		-0.00053160		 0.00007744		 0.00033684	
O		18.27838579		5.00485686		7.12443655		-0.00053163		 0.00007741		-0.00033682	
O		0.47614143		1.92369971		4.01095467		 0.00053156		-0.00007739		 0.00033680	
O		6.31455717		5.54459118		8.80254384		 0.00004478		-0.00041655		 0.00042286	
O		12.43997005		1.38396722		2.33284738		-0.00004475		 0.00041660		-0.00042282	
O		12.43997005		1.38396722		8.80254384		-0.00004471		 0.00041659		 0.00042293	
O		6.31455717		5.54459118		2.33284738		 0.00004475		-0.00041658		-0.00042288	
O		3.06309991		2.07991576		7.90043201		-0.00004670		-0.00031926		-0.00038268	
O		15.69142547		4.84864081		3.23495921		 0.00004662		 0.00031919		 0.00038275	
O		15.69142731		4.84864264		7.90043201		 0.00004669		 0.00031922		-0.00038259	
O		3.06310174		2.07991576		3.23495921		-0.00004669		-0.00031922		 0.00038268	
O		7.11100185		3.38966743		0.00000000		-0.00035644		-0.00020749		 0.00000003	
O		11.64352537		3.53888914		0.00000000		 0.00035650		 0.00020750		 0.00000009	
O		2.26609942		6.85413924		5.56769653		 0.00036784		-0.00018329		-0.00000001	
O		16.48842963		0.07441733		5.56769653		-0.00036789		 0.00018331		 0.00000002	
O		7.71743093		3.45240185		7.91396394		-0.00041197		-0.00042349		 0.00054189	
O		11.03709628		3.47615655		3.22142912		 0.00041191		 0.00042345		-0.00054190	
O		11.03709628		3.47615655		7.91396210		 0.00041199		 0.00042346		 0.00054189	
O		7.71743277		3.45240185		3.22142912		-0.00041196		-0.00042353		-0.00054190	
O		1.65994916		6.91689200		8.78923570		 0.00040551		-0.00048109		-0.00051081	
O		17.09457622		0.01166457		2.34615735		-0.00040568		 0.00048097		 0.00051088	
O		17.09457806		0.01166457		8.78923570		-0.00040554		 0.00048110		-0.00051082	
O		1.65995283		6.91689200		2.34615735		 0.00040565		-0.00048105		 0.00051092	
O		7.44564413		0.69899538		0.00000000		-0.00022300		-0.00062474		 0.00000002	
O		11.30888492		6.22956120		0.00000000		 0.00022300		 0.00062477		 0.00000006	
O		1.93165891		4.16389459		5.56769653		 0.00020422		-0.00072758		 0.00000007	
O		16.82286830		2.76466382		5.56769653		-0.00020425		 0.00072759		-0.00000002	
O		10.79756452		5.28500091		5.56769469		-0.00080643		-0.00036705		-0.00000002	
O		7.95696270		1.64355750		5.56769653		 0.00080647		 0.00036703		 0.00000003	
O		17.33442717		1.82008703		0.00000000		 0.00079026		-0.00024361		-0.00000004	
O		1.42010005		5.10847138		0.00000000		-0.00079030		 0.00024360		 0.00000001	
O		13.11575369		3.62408506		5.56769653		-0.00057778		 0.00066910		 0.00000006	
O		5.63877353		3.30447335		5.56769469		 0.00057776		-0.00066911		 0.00000001	
O		15.01430093		0.16170073		0.00000000		 0.00058964		 0.00060605		 0.00000001	
O		3.74022628		6.76685768		0.00000000		-0.00058966		-0.00060609		0.00000000	
O		8.27604061		5.92106009		7.03644144		 0.00083512		 0.00031708		-0.00016589	
O		10.47848661		1.00749832		4.09895162		-0.00083508		-0.00031706		 0.00016598	
O		10.47848661		1.00749649		7.03644144		-0.00083507		-0.00031701		-0.00016602	
O		8.27604061		5.92106192		4.09894978		 0.00083517		 0.00031703		 0.00016594	
O		1.10087172		2.45734586		9.66605932		-0.00082993		 0.00024774		 0.00017913	
O		17.65365366		4.47121071		1.46933373		 0.00082987		-0.00024770		-0.00017916	
O		17.65365549		4.47121255		9.66605932		 0.00082989		-0.00024774		 0.00017913	
O		1.10087356		2.45734586		1.46933190		-0.00082991		 0.00024770		-0.00017907	
