# total energy = -49445.8222076 eV

CRYSTAL
PRIMVEC
		5.08939982		0.00000000		0.00000000
		0.00000000		13.26959724		0.00000000
		0.00000000		0.00000000		8.69560094
PRIMECORD
   70 1
Si		2.54469991		0.00000000		0.00000000		0.00000000		0.00000000		0.00000000
Si		0.00000000		6.63479964		4.34779996		0.00000000		0.00000000		-0.00000000
Si		2.47349870		4.99626991		0.00000000		-0.00052550		 0.00024311		0.00000000
Si		2.61590112		8.27332988		0.00000000		 0.00052550		-0.00024311		-0.00000000
Si		0.07120121		11.63107057		4.34779996		 0.00052550		 0.00024311		-0.00000000
Si		5.01819861		1.63852973		4.34779996		-0.00052550		-0.00024311		0.00000000
Mg		0.86219522		2.30240784		0.00000000		-0.00005618		 0.00039579		0.00000000
Mg		4.22720460		10.96719144		0.00000000		 0.00005618		-0.00039579		0.00000000
Mg		1.68250469		8.93720849		4.34779996		 0.00005618		 0.00039579		-0.00000000
Mg		3.40689513		4.33239180		4.34779996		-0.00005618		-0.00039579		-0.00000000
Mg		0.80570289		4.29218504		2.81563513		-0.00033308		-0.00031287		 0.00034481
Mg		4.28369694		8.97741577		5.87996480		 0.00033308		 0.00031287		-0.00034481
Mg		4.28369694		8.97741577		2.81563513		 0.00033308		 0.00031287		 0.00034481
Mg		0.80570289		4.29218504		5.87996480		-0.00033308		-0.00031287		-0.00034481
Mg		1.73899703		10.92698468		1.53216483		 0.00033308		-0.00031287		-0.00034481
Mg		3.35040280		2.34261511		7.16343458		-0.00033308		 0.00031287		 0.00034481
Mg		3.35040280		2.34261511		1.53216483		-0.00033308		 0.00031287		-0.00034481
Mg		1.73899703		10.92698468		7.16343458		 0.00033308		-0.00031287		 0.00034481
Mg		2.54469991		6.63479964		2.79363467		0.00000000		0.00000000		-0.00018107
Mg		2.54469991		6.63479964		5.90196373		0.00000000		0.00000000		 0.00018107
Mg		0.00000000		0.00000000		1.55416478		0.00000000		0.00000000		 0.00018107
Mg		0.00000000		0.00000000		7.14143463		0.00000000		0.00000000		-0.00018107
Mg		2.54469991		0.00000000		2.97293881		0.00000000		0.00000000		 0.00043823
Mg		2.54469991		0.00000000		5.72266061		0.00000000		0.00000000		-0.00043823
Mg		0.00000000		6.63479964		1.37486116		0.00000000		0.00000000		-0.00043823
Mg		0.00000000		6.63479964		7.32073775		0.00000000		0.00000000		 0.00043823
O		1.69075002		5.48273256		1.35755720		-0.00055499		 0.00006703		-0.00015627
O		3.39864980		7.78686672		7.33804273		 0.00055499		-0.00006703		 0.00015627
O		3.39864980		7.78686672		1.35755720		 0.00055499		-0.00006703		-0.00015627
O		1.69075002		5.48273256		7.33804273		-0.00055499		 0.00006703		 0.00015627
O		0.85394989		12.11753373		2.99024277		 0.00055499		 0.00006703		 0.00015627
O		4.23544892		1.15206708		5.70535665		-0.00055499		-0.00006703		-0.00015627
O		4.23544892		1.15206708		2.99024277		-0.00055499		-0.00006703		 0.00015627
O		0.85394989		12.11753373		5.70535665		 0.00055499		 0.00006703		-0.00015627
O		2.50953216		3.43987801		0.00000000		 0.00044411		 0.00024046		-0.00000000
O		2.57986715		9.82972178		0.00000000		-0.00044411		-0.00024046		-0.00000000
O		0.03516775		10.07467867		4.34779996		-0.00044411		 0.00024046		0.00000000
O		5.05423207		3.19492214		4.34779996		 0.00044411		-0.00024046		0.00000000
O		4.02780191		5.50024875		0.00000000		-0.00049386		-0.00031986		0.00000000
O		1.06159791		7.76935053		0.00000000		 0.00049386		 0.00031986		0.00000000
O		3.60629782		12.13504941		4.34779996		 0.00049386		-0.00031986		-0.00000000
O		1.48310200		1.13455089		4.34779996		-0.00049386		 0.00031986		-0.00000000
O		1.81386210		0.96961006		1.25773218		-0.00007217		 0.00015596		-0.00008328
O		3.27553773		12.29999075		7.43786774		 0.00007217		-0.00015596		 0.00008328
O		3.27553773		12.29999075		1.25773218		 0.00007217		-0.00015596		-0.00008328
O		1.81386210		0.96961006		7.43786774		-0.00007217		 0.00015596		 0.00008328
O		0.73083781		7.60440970		3.09006778		 0.00007217		 0.00015596		 0.00008328
O		4.35856201		5.66519060		5.60553062		-0.00007217		-0.00015596		-0.00008328
O		4.35856201		5.66519060		3.09006778		-0.00007217		-0.00015596		 0.00008328
O		0.73083781		7.60440970		5.60553062		 0.00007217		 0.00015596		-0.00008328
O		5.00058979		3.34194879		1.38433914		 0.00029096		-0.00026207		 0.00015781
O		0.08881003		9.92765049		7.31125976		-0.00029096		 0.00026207		-0.00015781
O		0.08881003		9.92765049		1.38433914		-0.00029096		 0.00026207		 0.00015781
O		5.00058979		3.34194879		7.31125976		 0.00029096		-0.00026207		-0.00015781
O		2.63350994		9.97674843		2.96345980		-0.00029096		-0.00026207		-0.00015781
O		2.45588988		3.29285085		5.73213860		 0.00029096		 0.00026207		 0.00015781
O		2.45588988		3.29285085		2.96345980		 0.00029096		 0.00026207		-0.00015781
O		2.63350994		9.97674843		5.73213860		-0.00029096		-0.00026207		 0.00015781
O		0.99589376		12.21851556		0.00000000		 0.00058562		 0.00084600		0.00000000
O		4.09350606		1.05108474		0.00000000		-0.00058562		-0.00084600		0.00000000
O		1.54880615		5.58371490		4.34779996		-0.00058562		 0.00084600		-0.00000000
O		3.54059367		7.68588488		4.34779996		 0.00058562		-0.00084600		-0.00000000
H		4.69802498		4.01538072		0.94347294		-0.00053977		 0.00079691		 0.00028116
H		0.39137485		9.25421856		7.75212648		 0.00053977		-0.00079691		-0.00028116
H		0.39137485		9.25421856		0.94347294		 0.00053977		-0.00079691		 0.00028116
H		4.69802498		4.01538072		7.75212648		-0.00053977		 0.00079691		-0.00028116
H		2.93607476		10.65018138		3.40432702		 0.00053977		 0.00079691		-0.00028116
H		2.15332506		2.61941892		5.29127188		-0.00053977		-0.00079691		 0.00028116
H		2.15332506		2.61941892		3.40432702		-0.00053977		-0.00079691		-0.00028116
H		2.93607476		10.65018138		5.29127188		 0.00053977		 0.00079691		 0.00028116
