# total energy = -49440.0549741 eV

CRYSTAL
PRIMVEC
		5.08939982		0.00000000		0.00000000
		0.00000000		12.57119926		0.00000000
		0.00000000		0.00000000		8.69560094
PRIMECORD
   70 1
Si		2.54469991		0.00000000		0.00000000		0.00000000		0.00000000		0.00000000
Si		0.00000000		6.28559963		4.34779996		0.00000000		0.00000000		0.00000000
Si		2.47349870		4.73330775		0.00000000		-0.00062525		 0.00057645		0.00000000
Si		2.61590112		7.83789152		0.00000000		 0.00062525		-0.00057645		0.00000000
Si		0.07120121		11.01890840		4.34779996		 0.00062525		 0.00057645		0.00000000
Si		5.01819861		1.55229188		4.34779996		-0.00062525		-0.00057645		0.00000000
Mg		0.86219522		2.18122872		0.00000000		 0.00016689		 0.00028496		0.00000000
Mg		4.22720460		10.38997055		0.00000000		-0.00016689		-0.00028496		0.00000000
Mg		1.68250469		8.46682886		4.34779996		-0.00016689		 0.00028496		0.00000000
Mg		3.40689513		4.10437092		4.34779996		 0.00016689		-0.00028496		0.00000000
Mg		0.80570289		4.06628083		2.81563513		-0.00026317		-0.00033692		 0.00012362
Mg		4.28369694		8.50491945		5.87996480		 0.00026317		 0.00033692		-0.00012362
Mg		4.28369694		8.50491945		2.81563513		 0.00026317		 0.00033692		 0.00012362
Mg		0.80570289		4.06628083		5.87996480		-0.00026317		-0.00033692		-0.00012362
Mg		1.73899703		10.35187944		1.53216483		 0.00026317		-0.00033692		-0.00012362
Mg		3.35040280		2.21931982		7.16343458		-0.00026317		 0.00033692		 0.00012362
Mg		3.35040280		2.21931982		1.53216483		-0.00026317		 0.00033692		-0.00012362
Mg		1.73899703		10.35187944		7.16343458		 0.00026317		-0.00033692		 0.00012362
Mg		2.54469991		6.28559963		2.79363467		0.00000000		0.00000000		-0.00015637
Mg		2.54469991		6.28559963		5.90196373		0.00000000		0.00000000		 0.00015637
Mg		0.00000000		0.00000000		1.55416478		0.00000000		0.00000000		 0.00015637
Mg		0.00000000		0.00000000		7.14143463		0.00000000		0.00000000		-0.00015637
Mg		2.54469991		0.00000000		2.97293881		0.00000000		0.00000000		 0.00020056
Mg		2.54469991		0.00000000		5.72266061		0.00000000		0.00000000		-0.00020056
Mg		0.00000000		6.28559963		1.37486116		0.00000000		0.00000000		-0.00020056
Mg		0.00000000		6.28559963		7.32073775		0.00000000		0.00000000		 0.00020056
O		1.69075002		5.19416766		1.35755720		-0.00052960		 0.00000247		-0.00017952
O		3.39864980		7.37703160		7.33804273		 0.00052960		-0.00000247		 0.00017952
O		3.39864980		7.37703160		1.35755720		 0.00052960		-0.00000247		-0.00017952
O		1.69075002		5.19416766		7.33804273		-0.00052960		 0.00000247		 0.00017952
O		0.85394989		11.47976882		2.99024277		 0.00052960		 0.00000247		 0.00017952
O		4.23544892		1.09143197		5.70535665		-0.00052960		-0.00000247		-0.00017952
O		4.23544892		1.09143197		2.99024277		-0.00052960		-0.00000247		 0.00017952
O		0.85394989		11.47976882		5.70535665		 0.00052960		 0.00000247		-0.00017952
O		2.50953216		3.25883177		0.00000000		-0.00006915		-0.00008714		0.00000000
O		2.57986715		9.31236749		0.00000000		 0.00006915		 0.00008714		-0.00000000
O		0.03516775		9.54443242		4.34779996		 0.00006915		-0.00008714		0.00000000
O		5.05423207		3.02676786		4.34779996		-0.00006915		 0.00008714		0.00000000
O		4.02780191		5.21076267		0.00000000		-0.00040452		-0.00039954		0.00000000
O		1.06159791		7.36043761		0.00000000		 0.00040452		 0.00039954		0.00000000
O		3.60629782		11.49636281		4.34779996		 0.00040452		-0.00039954		0.00000000
O		1.48310200		1.07483798		4.34779996		-0.00040452		 0.00039954		0.00000000
O		1.81386210		0.91857814		1.25773218		-0.00001650		 0.00021635		 0.00010552
O		3.27553773		11.65262265		7.43786774		 0.00001650		-0.00021635		-0.00010552
O		3.27553773		11.65262265		1.25773218		 0.00001650		-0.00021635		 0.00010552
O		1.81386210		0.91857814		7.43786774		-0.00001650		 0.00021635		-0.00010552
O		0.73083781		7.20417777		3.09006778		 0.00001650		 0.00021635		-0.00010552
O		4.35856201		5.36702302		5.60553062		-0.00001650		-0.00021635		 0.00010552
O		4.35856201		5.36702302		3.09006778		-0.00001650		-0.00021635		-0.00010552
O		0.73083781		7.20417777		5.60553062		 0.00001650		 0.00021635		 0.00010552
O		5.00058979		3.16605710		1.38433914		-0.00000293		-0.00010067		-0.00002059
O		0.08881003		9.40514267		7.31125976		 0.00000293		 0.00010067		 0.00002059
O		0.08881003		9.40514267		1.38433914		 0.00000293		 0.00010067		-0.00002059
O		5.00058979		3.16605710		7.31125976		-0.00000293		-0.00010067		 0.00002059
O		2.63350994		9.45165673		2.96345980		 0.00000293		-0.00010067		 0.00002059
O		2.45588988		3.11954304		5.73213860		-0.00000293		 0.00010067		-0.00002059
O		2.45588988		3.11954304		2.96345980		-0.00000293		 0.00010067		 0.00002059
O		2.63350994		9.45165673		5.73213860		 0.00000293		-0.00010067		-0.00002059
O		0.99589376		11.57543580		0.00000000		 0.00064792		 0.00042481		0.00000000
O		4.09350606		0.99576500		0.00000000		-0.00064792		-0.00042481		0.00000000
O		1.54880615		5.28983565		4.34779996		-0.00064792		 0.00042481		0.00000000
O		3.54059367		7.28136463		4.34779996		 0.00064792		-0.00042481		0.00000000
H		4.69802498		3.80404492		0.94347294		-0.00068487		 0.00035357		 0.00040398
H		0.39137485		8.76715485		7.75212648		 0.00068487		-0.00035357		-0.00040398
H		0.39137485		8.76715485		0.94347294		 0.00068487		-0.00035357		 0.00040398
H		4.69802498		3.80404492		7.75212648		-0.00068487		 0.00035357		-0.00040398
H		2.93607476		10.08964557		3.40432702		 0.00068487		 0.00035357		-0.00040398
H		2.15332506		2.48155471		5.29127188		-0.00068487		-0.00035357		 0.00040398
H		2.15332506		2.48155471		3.40432702		-0.00068487		-0.00035357		-0.00040398
H		2.93607476		10.08964557		5.29127188		 0.00068487		 0.00035357		 0.00040398
