# total energy = -14250.3311185 eV	

CRYSTAL	
PRIMVEC	
		7.72999987		0.00000000		0.00000000	
		0.00000000		7.72999987		0.00000000	
		0.00000000		0.00000000		5.00999844	
PRIMCOORD
   24 1	
Ca		2.55089996		1.31409998		2.55509967		 0.00009454		-0.00009454		-0.00065617	
Ca		5.17909991		6.41589989		2.55509967		-0.00009454		 0.00009454		-0.00065617	
Ca		1.31409998		5.17909991		2.45490032		-0.00009454		-0.00009454		 0.00065617	
Ca		6.41589989		2.55089996		2.45490032		 0.00009454		 0.00009454		 0.00065617	
Si		1.08219998		2.78279995		4.75950006		-0.00014205		 0.00014205		 0.00083110	
Si		6.64779989		4.94719992		4.75950006		 0.00014205		-0.00014205		 0.00083110	
Si		2.78279995		6.64779989		0.25049992		 0.00014205		 0.00014205		-0.00083110	
Si		4.94719992		1.08219998		0.25049992		-0.00014205		-0.00014205		-0.00083110	
Mg		0.00000000		0.00000000		0.00000000		0.00000000		0.00000000		0.00000000	
Mg		3.86499994		3.86499994		0.00000000		0.00000000		0.00000000		0.00000000	
O		3.86499994		0.00000000		0.95190001		0.00000000		0.00000000		 0.00088264	
O		0.00000000		3.86499994		4.05809997		0.00000000		0.00000000		-0.00088264	
O		1.08219998		2.78279995		1.30260006		-0.00000809		 0.00000809		 0.00040450	
O		6.64779989		4.94719992		1.30260006		 0.00000809		-0.00000809		 0.00040450	
O		2.78279995		6.64779989		3.70739992		 0.00000809		 0.00000809		-0.00040450	
O		4.94719992		1.08219998		3.70739992		-0.00000809		-0.00000809		-0.00040450	
O		0.61839999		1.39139998		4.05809997		-0.00003168		 0.00007907		-0.00029432	
O		7.11159988		6.33859989		4.05809997		 0.00003168		-0.00007907		-0.00029432	
O		1.39139998		7.11159988		0.95190001		 0.00007907		 0.00003168		 0.00029432	
O		6.33859989		0.61839999		0.95190001		-0.00007907		-0.00003168		 0.00029432	
O		3.24659995		5.25639991		0.95190001		 0.00003168		 0.00007907		 0.00029432	
O		4.48339993		2.47359996		0.95190001		-0.00003168		-0.00007907		 0.00029432	
O		2.47359996		3.24659995		4.05809997		-0.00007907		 0.00003168		-0.00029432	
O		5.25639991		4.48339993		4.05809997		 0.00007907		-0.00003168		-0.00029432	
