# total energy = -22453.0288495 eV	

CRYSTAL	
PRIMVEC	
		9.05300002		0.00000000		0.00000000	
		0.00000000		7.67699834		0.00000000	
		-0.52464851		0.00000000		4.72194523	
PRIMCOORD
   40 1	
Ca		6.64561268		0.51819825		0.42544664		 0.00002221		 0.00022253		 0.00071023	
Ca		1.88274336		7.15880280		4.29649587		-0.00002221		-0.00022253		-0.00071023	
Ca		2.14506490		4.35669742		1.93552507		-0.00002221		 0.00022253		-0.00071023	
Ca		6.38329114		3.32030273		2.78641926		 0.00002221		-0.00022253		 0.00071023	
Mg		1.97928999		1.25979557		1.90388845		 0.00012718		-0.00036814		 0.00060028	
Mg		6.54906696		6.41720368		2.81805587		-0.00012718		 0.00036814		-0.00060028	
Mg		6.81138940		5.09829564		0.45708416		-0.00012718		-0.00036814		-0.00060028	
Mg		1.71696845		2.57870360		4.26485926		 0.00012718		 0.00036814		 0.00060028	
Si		4.38151984		1.27438176		2.18484288		 0.00024239		 0.00034663		 0.00035808	
Si		4.14683711		6.40261839		2.53709963		-0.00024239		-0.00034663		-0.00035808	
Si		4.40915865		5.11288183		0.17612793		-0.00024239		 0.00034663		-0.00035808	
Si		4.11919830		2.56411831		4.54581459		 0.00024239		-0.00034663		 0.00035808	
Si		0.14788438		6.55846126		1.24375999		 0.00075920		 0.00071296		-0.00059340	
Si		8.38047347		1.11853889		3.47818434		-0.00075920		-0.00071296		 0.00059340	
Si		8.64279501		2.71996118		1.11721172		-0.00075920		 0.00071296		 0.00059340	
Si		-0.11443807		4.95703896		3.60473079		 0.00075920		-0.00071296		-0.00059340	
O		3.50493414		1.29971568		0.53310673		 0.00058976		-0.00081608		-0.00026653	
O		5.02342190		6.37728357		4.18883578		-0.00058976		 0.00081608		 0.00026653	
O		5.28574434		5.13821575		1.82786408		-0.00058976		-0.00081608		 0.00026653	
O		3.24261170		2.53878440		2.89407934		 0.00058976		 0.00081608		-0.00026653	
O		3.49747718		3.70875881		0.40467091		-0.00007903		-0.00006633		-0.00060475	
O		5.03087976		3.96824133		4.31727341		 0.00007903		 0.00006633		 0.00060475	
O		5.29320220		7.54725889		1.95630080		 0.00007903		-0.00006633		 0.00060475	
O		3.23515474		0.12974126		2.76564172		-0.00007903		 0.00006633		-0.00060475	
O		5.43097891		2.25089628		1.26217560		 0.00043496		 0.00016285		 0.00068437	
O		3.09737713		5.42610387		3.45976782		-0.00043496		-0.00016285		-0.00068437	
O		3.35969867		6.08939726		1.09879611		-0.00043496		 0.00016285		-0.00068437	
O		5.16865737		1.58760379		3.62314731		 0.00043496		-0.00016285		 0.00068437	
O		1.17630971		2.69923343		1.02371686		 0.00051941		 0.00009675		 0.00005961	
O		7.35204724		4.97776671		3.69822565		-0.00051941		-0.00009675		-0.00005961	
O		7.61436878		6.53773260		1.33725394		-0.00051941		 0.00009675		-0.00005961	
O		0.91398817		1.13926664		3.38468857		 0.00051941		-0.00009675		 0.00005961	
O		0.85195973		0.22186459		0.93636085		-0.00053806		-0.00064024		-0.00023332	
O		7.67639631		7.45513465		3.78558167		 0.00053806		 0.00064024		 0.00023332	
O		7.93871785		4.06036557		1.42460996		 0.00053806		-0.00064024		 0.00023332	
O		0.58963819		3.61663458		3.29733346		-0.00053806		 0.00064024		-0.00023332	
O		0.94307183		5.44299314		0.32817487		-0.00011582		-0.00009481		-0.00015037	
O		7.58528420		2.23400700		4.39376764		 0.00011582		 0.00009481		 0.00015037	
O		7.84760574		1.60449307		2.03279684		 0.00011582		-0.00009481		 0.00015037	
O		0.68075029		6.07250708		2.68914658		-0.00011582		 0.00009481		-0.00015037	
