# total energy = -20629.696897 eV	

CRYSTAL	
PRIMVEC	
		10.10999973		0.00000000		0.00000000	
		0.00000000		5.76999926		-0.69240355	
		0.00000000		-0.56399644		4.69999733	
PRIMCOORD
   28 1	
Si		8.51261977		2.39138698		3.76723966		-0.00003036		 0.00004172		 0.00062148	
Si		1.59737996		2.81461280		0.24036019		 0.00003036		-0.00004172		-0.00062148	
Si		3.26148591		-0.49767384		4.14727960		 0.00013444		-0.00006804		 0.00016774	
Si		6.84851382		-0.06632564		0.55271975		-0.00013444		 0.00006804		-0.00016774	
Mg		5.05499986		2.88499963		-0.34619975		0.00000000		0.00000000		0.00000000	
Mg		0.00000000		-0.28200024		2.34999968		0.00000000		0.00000000		0.00000000	
Mg		0.00000000		2.60300040		2.00379992		0.00000000		0.00000000		0.00000000	
Mg		5.05499986		-0.28200024		2.34999968		0.00000000		0.00000000		0.00000000	
Mg		2.50930193		1.17664322		2.17032982		 0.00046810		-0.00024072		 0.00002018	
Mg		7.60069780		4.02935657		1.83726902		-0.00046810		 0.00024072		-0.00002018	
Mg		7.60069780		1.17551494		2.17973010		-0.00026358		-0.00012632		-0.00007125	
Mg		2.50930193		4.03048484		1.82786874		 0.00026358		 0.00012632		 0.00007125	
O		3.18869391		2.76627791		0.64314965		 0.00018408		 0.00032755		-0.00005875	
O		6.92130581		2.43972188		3.36445019		-0.00018408		-0.00032755		 0.00005875	
O		1.66006196		2.44750456		3.29958949		 0.00039054		 0.00015200		-0.00021550	
O		8.44993777		2.75849523		0.70801036		-0.00039054		-0.00015200		 0.00021550	
O		8.39635477		-0.13163826		1.09698047		-0.00000105		 0.00010701		-0.00006187	
O		1.71364495		-0.43236223		3.60301990		 0.00000105		-0.00010701		 0.00006187	
O		3.36662991		-0.13022792		1.08522961		 0.00038161		-0.00043187		-0.00013442	
O		6.74336982		-0.43377156		3.61476974		-0.00038161		 0.00043187		 0.00013442	
O		0.86036098		1.37178947		0.89479665		 0.00012369		-0.00017968		-0.00046546	
O		9.24963875		3.83421032		3.11280320		-0.00012369		 0.00017968		 0.00046546	
O		9.24963875		1.06576382		3.44501678		-0.00016046		-0.00024580		 0.00088597	
O		0.86036098		4.14023597		0.56258307		 0.00016046		 0.00024580		-0.00088597	
O		5.99725184		1.19149279		0.88076397		 0.00011167		 0.00001922		 0.00057404	
O		4.11274789		4.01450700		3.12683588		-0.00011167		-0.00001922		-0.00057404	
O		4.11274789		0.87678063		3.50336260		 0.00043569		-0.00054451		-0.00034703	
O		5.99725184		4.32921916		0.50423624		-0.00043569		 0.00054451		 0.00034703	
