# total energy = -20626.7963102 eV	

CRYSTAL	
PRIMVEC	
		10.10999973		0.00000000		0.00000000	
		0.00000000		5.76999926		-0.92320474	
		0.00000000		-0.75200200		4.69999733	
PRIMCOORD
   28 1	
Si		8.51261977		2.22684977		3.65184008		-0.00015679		-0.00004920		-0.00002847	
Si		1.59737996		2.79114952		0.12495960		 0.00015679		 0.00004920		 0.00002847	
Si		3.26148591		-0.66356478		4.14727960		-0.00014917		-0.00018725		-0.00036952	
Si		6.84851382		-0.08843520		0.55271975		 0.00014917		 0.00018725		 0.00036952	
Mg		5.05499986		2.88499963		-0.46160035		0.00000000		0.00000000		0.00000000	
Mg		0.00000000		-0.37599999		2.34999968		0.00000000		0.00000000		0.00000000	
Mg		0.00000000		2.50899964		1.88840034		0.00000000		0.00000000		0.00000000	
Mg		5.05499986		-0.37599999		2.34999968		0.00000000		0.00000000		0.00000000	
Mg		2.50930193		1.08283051		2.11200725		-0.00003624		-0.00065978		-0.00078740	
Mg		7.60069780		3.93516878		1.66479242		 0.00003624		 0.00065978		 0.00078740	
Mg		7.60069780		1.08132715		2.12140652		 0.00025422		-0.00014829		 0.00000514	
Mg		2.50930193		3.93667315		1.65539316		-0.00025422		 0.00014829		-0.00000514	
O		3.18869391		2.72670433		0.52775007		-0.00007676		 0.00040634		-0.00011243	
O		6.92130581		2.29129596		3.24904960		 0.00007676		-0.00040634		 0.00011243	
O		1.66006196		2.30167388		3.18418991		 0.00059237		-0.00021821		-0.00079575	
O		8.44993777		2.71632642		0.59260977		-0.00059237		 0.00021821		 0.00079575	
O		8.39635477		-0.17551667		1.09698047		-0.00004805		-0.00015762		-0.00001805	
O		1.71364495		-0.57648331		3.60301990		 0.00004805		 0.00015762		 0.00001805	
O		3.36662991		-0.17363722		1.08522961		-0.00074950		-0.00011147		 0.00017238	
O		6.74336982		-0.57836275		3.61476974		 0.00074950		 0.00011147		-0.00017238	
O		0.86036098		1.32879467		0.83476549		 0.00024649		-0.00028397		 0.00022928	
O		9.24963875		3.68920462		2.94203418		-0.00024649		 0.00028397		-0.00022928	
O		9.24963875		0.92075913		3.38498563		 0.00023043		 0.00046206		-0.00006427	
O		0.86036098		4.09724117		0.39181405		-0.00023043		-0.00046206		 0.00006427	
O		5.99725184		1.14994473		0.82811817		 0.00002469		-0.00000672		-0.00035211	
O		4.11274789		3.86805456		2.94868151		-0.00002469		 0.00000672		 0.00035211	
O		4.11274789		0.73032919		3.45071781		-0.00029567		 0.00020852		-0.00033347	
O		5.99725184		4.28767110		0.32608187		 0.00029567		-0.00020852		 0.00033347	
