# total energy = -20632.0668609 eV	

CRYSTAL	
PRIMVEC	
		10.10999973		0.00000000		0.00000000	
		0.00000000		5.76999926		-0.46160237	
		0.00000000		-0.37600100		4.69999733	
PRIMCOORD
   28 1	
Si		8.51261977		2.55592521		3.88264025		 0.00034105		 0.00049397		 0.00002267	
Si		1.59737996		2.83807508		0.35575977		-0.00034105		-0.00049397		-0.00002267	
Si		3.26148591		-0.33178188		4.14727960		-0.00015798		-0.00012469		 0.00033453	
Si		6.84851382		-0.04421811		0.55271975		 0.00015798		 0.00012469		-0.00033453	
Mg		5.05499986		2.88499963		-0.23080017		0.00000000		0.00000000		0.00000000	
Mg		0.00000000		-0.18800050		2.34999968		0.00000000		0.00000000		0.00000000	
Mg		0.00000000		2.69700014		2.11919951		0.00000000		0.00000000		0.00000000	
Mg		5.05499986		-0.18800050		2.34999968		0.00000000		0.00000000		0.00000000	
Mg		2.50930193		1.27045492		2.22865441		 0.00012900		-0.00033016		 0.00023902	
Mg		7.60069780		4.12354537		2.00974561		-0.00012900		 0.00033016		-0.00023902	
Mg		7.60069780		1.26970273		2.23805367		-0.00048685		-0.00029054		 0.00017815	
Mg		2.50930193		4.12429654		2.00034635		 0.00048685		 0.00029054		-0.00017815	
O		3.18869391		2.80585148		0.75855025		-0.00008268		 0.00042165		 0.00015294	
O		6.92130581		2.58814780		3.47984977		 0.00008268		-0.00042165		-0.00015294	
O		1.66006196		2.59333726		3.41499008		-0.00059292		-0.00011339		 0.00010513	
O		8.44993777		2.80066303		0.82340994		 0.00059292		 0.00011339		-0.00010513	
O		8.39635477		-0.08775783		1.09698047		 0.00004497		 0.00030772		-0.00034119	
O		1.71364495		-0.28824216		3.60301990		-0.00004497		-0.00030772		 0.00034119	
O		3.36662991		-0.08681760		1.08522961		 0.00067210		-0.00022584		 0.00016130	
O		6.74336982		-0.28918239		3.61476974		-0.00067210		 0.00022584		-0.00016130	
O		0.86036098		1.41478628		0.95482780		-0.00007649		-0.00077728		 0.00000776	
O		9.24963875		3.97921400		3.28357222		 0.00007649		 0.00077728		-0.00000776	
O		9.24963875		1.21076750		3.50504794		-0.00037323		 0.00000837		 0.00013385	
O		0.86036098		4.18323177		0.73335208		 0.00037323		-0.00000837		-0.00013385	
O		5.99725184		1.23304084		0.93340876		 0.00028314		-0.00005133		 0.00039327	
O		4.11274789		4.16095843		3.30499126		-0.00028314		 0.00005133		-0.00039327	
O		4.11274789		1.02323307		3.55600840		 0.00020155		-0.00043326		-0.00033508	
O		5.99725184		4.37076721		0.68239061		-0.00020155		 0.00043326		 0.00033508	
