# total energy = -20633.5302547 eV	

CRYSTAL	
PRIMVEC	
		10.10999973		0.00000000		0.00000000	
		0.00000000		5.76999926		0.23080118	
		0.00000000		0.18799544		4.69999733	
PRIMCOORD
   28 1	
Si		8.51261977		3.04953786		4.22884001		-0.00025105		-0.00038579		-0.00033243	
Si		1.59737996		2.90846191		0.70195952		 0.00025105		 0.00038579		 0.00033243	
Si		3.26148591		0.16589094		4.14727960		 0.00033003		-0.00041671		 0.00042105	
Si		6.84851382		0.02210855		0.55271975		-0.00033003		 0.00041671		-0.00042105	
Mg		5.05499986		2.88499963		0.11539958		0.00000000		0.00000000		0.00000000	
Mg		0.00000000		0.09399974		2.34999968		0.00000000		0.00000000		0.00000000	
Mg		0.00000000		2.97900039		2.46540027		0.00000000		0.00000000		0.00000000	
Mg		5.05499986		0.09399974		2.34999968		0.00000000		0.00000000		0.00000000	
Mg		2.50930193		1.55189102		2.40362312		 0.00005348		-0.00005024		 0.00019689	
Mg		7.60069780		4.40610874		2.52717742		-0.00005348		 0.00005024		-0.00019689	
Mg		7.60069780		1.55226712		2.41302339		 0.00013967		-0.00028781		-0.00042182	
Mg		2.50930193		4.40573265		2.51777715		-0.00013967		 0.00028781		 0.00042182	
O		3.18869391		2.92457422		1.10475000		 0.00064172		-0.00049542		 0.00008501	
O		6.92130581		3.03342555		3.82604953		-0.00064172		 0.00049542		-0.00008501	
O		1.66006196		3.03083233		3.76118984		-0.00066639		-0.00003742		 0.00038303	
O		8.44993777		2.92716743		1.16960969		 0.00066639		 0.00003742		-0.00038303	
O		8.39635477		0.04387942		1.09698047		 0.00033230		-0.00032949		-0.00030090	
O		1.71364495		0.14412108		3.60301990		-0.00033230		 0.00032949		 0.00030090	
O		3.36662991		0.04340931		1.08522961		 0.00005991		 0.00015306		 0.00071623	
O		6.74336982		0.14459119		3.61476974		-0.00005991		-0.00015306		-0.00071623	
O		0.86036098		1.54377269		1.13492127		-0.00024891		-0.00076753		 0.00075751	
O		9.24963875		4.41422707		3.79587927		 0.00024891		 0.00076753		-0.00075751	
O		9.24963875		1.64578057		3.68514040		 0.00021429		-0.00019246		-0.00026813	
O		0.86036098		4.31221920		1.24565913		-0.00021429		 0.00019246		 0.00026813	
O		5.99725184		1.35768501		1.09134515		 0.00016133		 0.00027013		-0.00072866	
O		4.11274789		4.60031476		3.83945438		-0.00016133		-0.00027013		 0.00072866	
O		4.11274789		1.46258940		3.71394480		-0.00011087		 0.00042215		-0.00014063	
O		5.99725184		4.49541138		1.21685372		 0.00011087		-0.00042215		 0.00014063	
