# total energy = -20626.7963102 eV	

CRYSTAL	
PRIMVEC	
		10.10999973		0.00000000		0.00000000	
		0.00000000		5.76999926		0.92320474	
		0.00000000		0.75200200		4.69999733	
PRIMCOORD
   28 1	
Si		8.51261977		3.54314949		4.57503976		-0.00015680		 0.00004921		-0.00002847	
Si		1.59737996		2.97884975		1.04816029		 0.00015680		-0.00004921		 0.00002847	
Si		3.26148591		0.66356478		4.14727960		-0.00014916		 0.00018725		-0.00036954	
Si		6.84851382		0.08843520		0.55271975		 0.00014916		-0.00018725		 0.00036954	
Mg		5.05499986		2.88499963		0.46160035		0.00000000		0.00000000		0.00000000	
Mg		0.00000000		0.37599999		2.34999968		0.00000000		0.00000000		0.00000000	
Mg		0.00000000		3.26099962		2.81160002		0.00000000		0.00000000		0.00000000	
Mg		5.05499986		0.37599999		2.34999968		0.00000000		0.00000000		0.00000000	
Mg		2.50930193		1.83332713		2.57859284		-0.00025422		-0.00014827		-0.00000514	
Mg		7.60069780		4.68867312		3.04460721		 0.00025422		 0.00014827		 0.00000514	
Mg		7.60069780		1.83483049		2.58799210		 0.00003624		-0.00065979		 0.00078739	
Mg		2.50930193		4.68716875		3.03520693		-0.00003624		 0.00065979		-0.00078739	
O		3.18869391		3.04329594		1.45094975		-0.00007677		-0.00040636		-0.00011243	
O		6.92130581		3.47870431		4.17225029		 0.00007677		 0.00040636		 0.00011243	
O		1.66006196		3.46832640		4.10738959		 0.00059238		 0.00021821		-0.00079575	
O		8.44993777		3.05367386		1.51581046		-0.00059238		-0.00021821		 0.00079575	
O		8.39635477		0.17551667		1.09698047		-0.00004805		 0.00015762		-0.00001805	
O		1.71364495		0.57648331		3.60301990		 0.00004805		-0.00015762		 0.00001805	
O		3.36662991		0.17363722		1.08522961		-0.00074950		 0.00011145		 0.00017238	
O		6.74336982		0.57836275		3.61476974		 0.00074950		-0.00011145		-0.00017238	
O		0.86036098		1.67275910		1.31501373		-0.00023043		 0.00046204		 0.00006427	
O		9.24963875		4.84924115		4.30818632		 0.00023043		-0.00046204		-0.00006427	
O		9.24963875		2.08079465		3.86523387		-0.00024649		-0.00028397		-0.00022928	
O		0.86036098		4.44120459		1.75796618		 0.00024649		 0.00028397		 0.00022928	
O		5.99725184		1.48232917		1.24928155		 0.00029567		 0.00020853		 0.00033348	
O		4.11274789		5.03967108		4.37391749		-0.00029567		-0.00020853		-0.00033348	
O		4.11274789		1.90194471		3.87188220		-0.00002470		-0.00000673		 0.00035211	
O		5.99725184		4.62005453		1.75131785		 0.00002470		 0.00000673		-0.00035211	
