# total energy = -20629.696897 eV	

CRYSTAL	
PRIMVEC	
		10.10999973		0.00000000		0.00000000	
		0.00000000		5.76999926		0.69240355	
		0.00000000		0.56399644		4.69999733	
PRIMCOORD
   28 1	
Si		8.51261977		3.37861329		4.45964018		-0.00003036		-0.00004172		 0.00062148	
Si		1.59737996		2.95538646		0.93275970		 0.00003036		 0.00004172		-0.00062148	
Si		3.26148591		0.49767384		4.14727960		 0.00013444		 0.00006804		 0.00016775	
Si		6.84851382		0.06632564		0.55271975		-0.00013444		-0.00006804		-0.00016775	
Mg		5.05499986		2.88499963		0.34619975		0.00000000		0.00000000		0.00000000	
Mg		0.00000000		0.28200024		2.34999968		0.00000000		0.00000000		0.00000000	
Mg		0.00000000		3.16699988		2.69619943		0.00000000		0.00000000		0.00000000	
Mg		5.05499986		0.28200024		2.34999968		0.00000000		0.00000000		0.00000000	
Mg		2.50930193		1.73951543		2.52026926		 0.00026359		-0.00012632		 0.00007125	
Mg		7.60069780		4.59448533		2.87212960		-0.00026359		 0.00012632		-0.00007125	
Mg		7.60069780		1.74064270		2.52966853		-0.00046810		-0.00024072		-0.00002018	
Mg		2.50930193		4.59335706		2.86273135		 0.00046810		 0.00024072		 0.00002018	
O		3.18869391		3.00372237		1.33555017		 0.00018408		-0.00032756		-0.00005875	
O		6.92130581		3.33027839		4.05684970		-0.00018408		 0.00032756		 0.00005875	
O		1.66006196		3.32249471		3.99199001		 0.00039054		-0.00015200		-0.00021550	
O		8.44993777		3.01150505		1.40040987		-0.00039054		 0.00015200		 0.00021550	
O		8.39635477		0.13163826		1.09698047		-0.00000105		-0.00010701		-0.00006187	
O		1.71364495		0.43236223		3.60301990		 0.00000105		 0.00010701		 0.00006187	
O		3.36662991		0.13022792		1.08522961		 0.00038161		 0.00043187		-0.00013442	
O		6.74336982		0.43377156		3.61476974		-0.00038161		-0.00043187		 0.00013442	
O		0.86036098		1.62976431		1.25498257		 0.00016046		-0.00024580		-0.00088597	
O		9.24963875		4.70423545		4.13741730		-0.00016046		 0.00024580		 0.00088597	
O		9.24963875		1.93578996		3.80520271		-0.00012370		-0.00017968		 0.00046546	
O		0.86036098		4.39820980		1.58719717		 0.00012370		 0.00017968		-0.00046546	
O		5.99725184		1.44078112		1.19663574		-0.00043569		-0.00054451		 0.00034703	
O		4.11274789		4.89321864		4.19576312		 0.00043569		 0.00054451		-0.00034703	
O		4.11274789		1.75549328		3.81923640		-0.00011167		 0.00001922		-0.00057404	
O		5.99725184		4.57850648		1.57316347		 0.00011167		-0.00001922		 0.00057404	
