# total energy = -117566.147585 eV

CRYSTAL
PRIMVEC
		10.58800397		1.69408535		0.00000000
		2.25552435		14.09699772		0.00000000
		-2.45393664		-0.39263201		9.76952112
PRIMECORD
   156 1
Si		8.18553507		1.32328363		0.72440964		 0.00059164		 0.00164823		 0.00052509
Si		2.20405232		14.07516743		9.04511148		-0.00059164		-0.00164823		-0.00052509
Si		2.30772445		7.25089354		4.16034984		 0.00329589		 0.00112753		-0.00001662
Si		8.08186186		8.14755752		5.60917128		-0.00329589		-0.00112753		 0.00001662
Si		4.04266425		3.25174296		6.58055403		-0.00448484		-0.00514054		 0.00060172
Si		6.34692314		12.14670810		3.18896709		 0.00448484		 0.00514054		-0.00060172
Si		4.84766977		10.24860251		8.07372657		 0.00574248		-0.00214642		-0.00390737
Si		5.54191655		5.14984748		1.69579347		-0.00574248		 0.00214642		 0.00390737
Si		1.49490747		1.96306782		4.16914351		-0.00225305		-0.00264470		-0.00182344
Si		8.89467885		13.43538324		5.60037762		 0.00225305		 0.00264470		 0.00182344
Si		9.56002052		10.12154423		0.71561705		-0.00004130		-0.00084887		-0.00182922
Si		0.82956472		5.27690576		9.05390299		 0.00004130		 0.00084887		 0.00182922
Si		7.14341486		2.83702225		5.59793606		-0.00148136		 0.00024815		-0.00211688
Si		3.24617253		12.56142881		4.17158506		 0.00148136		-0.00024815		 0.00211688
Si		1.44779098		8.79377960		9.05634562		 0.00064759		-0.00362620		-0.00289831
Si		8.94179533		6.60467039		0.71317550		-0.00064759		 0.00362620		 0.00289831
Mg		4.06703259		0.65072453		4.88475949		0.00000000		0.00000000		0.00000000
Mg		6.42175987		7.89554046		0.00000000		0.00000000		0.00000000		0.00000000
Mg		4.78933630		3.16338387		3.48176031		-0.00294094		-0.00115775		 0.00003906
Mg		5.60025002		12.23506719		6.28776081		 0.00294094		 0.00115775		-0.00003906
Mg		6.48667920		10.30301684		1.40300132		 0.00115481		 0.00096992		-0.00003459
Mg		3.90290819		5.09543422		8.36651980		-0.00115481		-0.00096992		 0.00003459
Mg		5.29399984		0.84704053		0.00000000		0.00000000		0.00000000		0.00000000
Mg		5.19479262		7.69922553		4.88475949		0.00000000		0.00000000		0.00000000
Mg		6.19726898		1.02576599		2.86383750		 0.00531815		-0.00027846		-0.00267981
Mg		4.19231734		14.37268507		6.90568362		-0.00531815		 0.00027846		 0.00267981
Mg		4.30275548		7.59070246		2.02092306		-0.00110856		 0.00283187		 0.00075905
Mg		6.08682977		7.80774753		7.74859806		 0.00110856		-0.00283187		-0.00075905
Mg		0.42249786		0.07240697		1.48887489		 0.00083970		-0.00193357		-0.00442971
Mg		9.96708846		15.32604302		8.28064623		-0.00083970		 0.00193357		 0.00442971
Mg		10.06787405		8.48372609		3.39588459		-0.00055829		-0.00939362		 0.00557181
Mg		0.32171227		6.91472497		6.37363653		 0.00055829		 0.00939362		-0.00557181
Mg		-0.86759911		-0.13400764		6.20091147		-0.00466364		 0.00477032		 0.00494521
Mg		11.25718543		15.53245870		3.56860965		 0.00466364		-0.00477032		-0.00494521
Mg		8.90403652		8.29751191		8.45337128		 0.00350888		 0.00720244		-0.00023633
Mg		1.48554979		7.10093915		1.31614984		-0.00350888		-0.00720244		 0.00023633
Mg		3.20028915		0.55009549		2.10484296		 0.00028485		 0.00201694		-0.00535485
Mg		7.18929824		14.84835450		7.66467816		-0.00028485		-0.00201694		 0.00535485
Mg		7.30099951		8.07426807		2.77991653		 0.00178094		 0.00570809		 0.00114577
Mg		3.08858574		7.32418299		6.98960352		-0.00178094		-0.00570809		-0.00114577
Mg		6.95444281		3.44702744		1.20760961		-0.00404404		-0.00341828		 0.00523395
Mg		3.43514351		11.95142362		8.56191044		 0.00404404		 0.00341828		-0.00523395
Mg		4.30095622		9.89052752		3.67714988		 0.00095484		 0.00363982		-0.00226973
Mg		6.08863010		5.50792354		6.09237124		-0.00095484		-0.00363982		 0.00226973
Mg		-1.24764163		2.17713842		9.47360224		 0.00688424		-0.00039000		 0.00343181
Mg		11.63722902		13.22131264		0.29591888		-0.00688424		 0.00039000		-0.00343181
Mg		10.06304671		10.85490731		5.18067945		 0.00038263		 0.00182109		-0.00371003
Mg		0.32653961		4.54354376		4.58884168		-0.00038263		-0.00182109		 0.00371003
Mg		0.86861347		2.57301832		7.34638750		-0.00061121		-0.00493101		 0.00162969
Mg		9.52097392		12.82543274		2.42313362		 0.00061121		 0.00493101		-0.00162969
Mg		7.96560346		10.57659504		7.30789526		 0.00018659		 0.00079640		 0.00145937
Mg		2.42398286		4.82185602		2.46162586		-0.00018659		-0.00079640		-0.00145937
Mg		6.40086889		3.44073431		8.74235367		-0.00471558		-0.00183208		 0.00187055
Mg		3.98871743		11.95771568		1.02716745		 0.00471558		 0.00183208		-0.00187055
Mg		2.42761784		9.67307285		5.91192801		 0.00393224		-0.00023655		 0.00295709
Mg		7.96196955		5.72537928		3.85759311		-0.00393224		 0.00023655		-0.00295709
Mg		3.98550491		2.95317772		0.44060523		-0.00465457		-0.00418176		 0.00024461
Mg		6.40408140		12.44527334		9.32891589		 0.00465457		 0.00418176		-0.00024461
Mg		7.26371357		10.34574990		4.44415533		 0.00134308		 0.00273785		 0.00061018
Mg		3.12587168		5.05270116		5.32536579		-0.00134308		-0.00273785		-0.00061018
Mg		9.80493810		4.00695133		1.94237628		-0.00128534		-0.00335185		-0.00075899
Mg		0.58464822		11.39149973		7.82714484		 0.00128534		 0.00335185		 0.00075899
Mg		1.48456545		9.54374994		2.94238428		 0.00623504		 0.00243229		-0.00044197
Mg		8.90502194		5.85470112		6.82713577		-0.00623504		-0.00243229		 0.00044197
O		3.80351976		1.64151854		6.54167149		-0.00242910		 0.00041630		-0.00197836
O		6.58606549		13.75693145		3.22784963		 0.00242910		-0.00041630		 0.00197836
O		4.57057025		8.63230584		8.11261019		 0.00089321		-0.00376667		-0.00087261
O		5.81901715		6.76614522		1.65691093		-0.00089321		 0.00376667		 0.00087261
O		5.91867686		2.14065668		4.50668029		-0.00085010		-0.00160613		-0.00041324
O		4.47091053		13.25779438		5.26284083		 0.00085010		 0.00160613		 0.00041324
O		4.96212570		8.85566656		0.37808134		-0.00013266		-0.00417659		-0.00048315
O		5.42745955		6.54278450		9.39144085		 0.00013266		 0.00417659		 0.00048315
O		7.42872366		4.48526390		5.59402765		 0.00102948		 0.00305416		 0.00007421
O		2.96086158		10.91318716		4.17549347		-0.00102948		-0.00305416		-0.00007421
O		1.68878514		10.43493249		9.06025403		-0.00282695		-0.00251802		-0.00110788
O		8.70080225		4.96351857		0.70926709		 0.00282695		 0.00251802		 0.00110788
O		6.69525551		2.24979952		7.12100448		 0.00057415		 0.00041614		 0.00012169
O		3.69433081		13.14865154		2.64851664		-0.00057415		-0.00041614		-0.00012169
O		1.72665117		8.32288068		7.53327720		 0.00184770		 0.00189375		-0.00413046
O		8.66293515		7.07556931		2.23624285		-0.00184770		-0.00189375		 0.00413046
O		1.78282510		3.61626012		4.15106937		-0.00206403		-0.00076312		-0.00049845
O		8.60676229		11.78218987		5.61845068		 0.00206403		 0.00076312		 0.00049845
O		9.79989630		11.76705053		0.73369119		 0.00136607		-0.00144018		 0.00034901
O		0.58969109		3.63140053		9.03582993		-0.00136607		 0.00144018		-0.00034901
O		2.93071051		1.67082359		3.75345025		 0.00002024		 0.00031396		 0.00101935
O		7.45887581		13.72762747		6.01607087		-0.00002024		-0.00031396		-0.00101935
O		7.95279952		9.34241573		1.13131031		-0.00038472		 0.00052825		-0.00092021
O		2.43678787		6.05603426		8.63820974		 0.00038472		-0.00052825		 0.00092021
O		0.99696276		1.35592987		5.68195354		-0.00285300		 0.00001067		 0.00011578
O		9.39262249		14.04252012		4.08756650		 0.00285300		-0.00001067		-0.00011578
O		7.43080815		9.25340363		8.97232814		 0.00086700		-0.00286016		-0.00050022
O		2.95877817		6.14504743		0.79719298		-0.00086700		 0.00286016		 0.00050022
O		0.27396207		1.25398623		3.09791553		 0.00004243		-0.00218613		-0.00194173
O		10.11562532		14.14446483		6.67160559		-0.00004243		 0.00218613		 0.00194173
O		10.61225436		9.77617132		1.78684503		 0.00537460		 0.00125962		-0.00617490
O		-0.22266804		5.62227867		7.98267502		-0.00537460		-0.00125962		 0.00617490
O		4.52774283		4.03896386		5.17100652		-0.00429557		-0.00495771		 0.00103249
O		5.86184349		11.35948720		4.59851352		 0.00429557		 0.00495771		-0.00103249
O		4.59563020		10.91788369		9.48327408		 0.00132586		-0.00267156		-0.00529016
O		5.79395612		4.48056737		0.28624704		-0.00132586		 0.00267156		 0.00529016
O		5.19306198		4.10832667		7.61534208		-0.00040554		 0.00048386		 0.00180561
O		5.19652433		11.29012332		2.15417904		 0.00040554		-0.00048386		-0.00180561
O		3.91813223		10.77239743		7.03893960		 0.00543908		 0.00087100		-0.00136151
O		6.47145516		4.62605363		2.73058152		-0.00543908		-0.00087100		 0.00136151
O		5.06573993		1.97946171		1.68133395		 0.00019021		-0.00173912		 0.00300906
O		5.32384639		13.41898935		8.08818610		-0.00019021		 0.00173912		-0.00300906
O		5.80694342		8.96611328		3.20342553		 0.00116976		-0.00210275		 0.00268995
O		4.58264397		6.43233778		6.56609451		-0.00116976		 0.00210275		-0.00268995
O		4.84700604		1.79748835		9.47448149		-0.00009757		-0.00259174		-0.00590521
O		5.54258135		13.60096271		0.29503963		 0.00009757		 0.00259174		 0.00590521
O		3.52347472		8.45378196		5.17980019		 0.00373243		-0.00238823		-0.00217668
O		6.86611053		6.94466910		4.58972093		-0.00373243		 0.00238823		 0.00217668
O		8.02700683		2.32414515		2.14147911		-0.00509709		-0.00219604		-0.00188089
O		2.36257949		13.07430591		7.62804201		 0.00509709		 0.00219604		 0.00188089
O		2.80327158		8.35640618		2.74328145		-0.00351618		-0.00287622		 0.00001050
O		7.58631474		7.04204488		7.02623967		 0.00351618		 0.00287622		-0.00001050
O		-0.94234469		0.82998398		8.03054638		 0.00245234		-0.00421205		 0.00138117
O		11.33193101		14.56846708		1.73897367		-0.00245234		 0.00421205		-0.00138117
O		9.29929344		9.33670376		6.62373530		 0.00133340		-0.00120778		 0.00152612
O		1.09029395		6.06174730		3.14578582		-0.00133340		 0.00120778		-0.00152612
O		9.83297681		2.66667119		0.27257027		-0.00284023		-0.00134761		 0.00211407
O		0.55660951		12.73177987		9.49695085		 0.00284023		 0.00134761		-0.00211407
O		1.01489642		8.12383576		4.61219136		 0.00085243		-0.00059155		-0.00145754
O		9.37469097		7.27461423		5.15732976		-0.00085243		 0.00059155		 0.00145754
O		1.52363136		1.25201219		8.63430347		-0.00130672		-0.00104755		-0.00173185
O		8.86595603		14.14643887		1.13521765		 0.00130672		 0.00104755		 0.00173185
O		6.84233944		8.97106393		6.01997821		-0.00190405		-0.00589407		 0.00063667
O		3.54724795		6.42738713		3.74954184		 0.00190405		 0.00589407		-0.00063667
O		2.20072722		1.35347867		0.69461349		-0.00077518		-0.00063842		-0.00281047
O		8.18885910		14.04497239		9.07490763		 0.00077518		 0.00063842		 0.00281047
O		8.61692095		9.24812915		4.19014814		 0.00085979		 0.00519423		-0.00414885
O		1.77266644		6.15032191		5.57937298		-0.00085979		-0.00519423		 0.00414885
O		2.75211264		3.72601737		6.99009247		-0.00267056		-0.00195882		 0.00076956
O		7.63747367		11.67243369		2.77942865		 0.00267056		 0.00195882		-0.00076956
O		6.36178690		11.17162388		7.66418921		 0.00138702		 0.00183340		-0.00235629
O		4.02779941		4.22682718		2.10533191		-0.00138702		-0.00183340		 0.00235629
O		8.54728686		2.53788335		5.16319184		 0.00048731		 0.00053281		 0.00447080
O		1.84229946		12.86056664		4.60632928		-0.00048731		-0.00053281		-0.00447080
O		-0.12808658		8.01788184		9.49108877		 0.00034657		 0.00407337		-0.00075856
O		10.51767397		7.38056922		0.27843235		-0.00034657		-0.00407337		 0.00075856
O		-0.28952817		3.35611207		6.22220776		-0.00315372		 0.00050761		-0.00082004
O		10.67911449		12.04233900		3.54731336		 0.00315372		-0.00050761		 0.00082004
O		9.44177199		11.78117765		8.43207284		-0.00101653		-0.00045446		 0.00319731
O		0.94781433		3.61727234		1.33744720		 0.00101653		 0.00045446		-0.00319731
O		9.42662729		4.91619085		3.55512911		 0.00030956		 0.00111239		 0.00375340
O		0.96296010		10.48226021		6.21439201		-0.00030956		-0.00111239		-0.00375340
O		2.18135564		10.62500575		1.32963252		 0.00316764		 0.00155176		 0.00795378
O		8.20823067		4.77344531		8.43988860		-0.00316764		-0.00155176		-0.00795378
H		-0.77234534		2.52749523		5.86171267		-0.00389260		-0.00262579		 0.00563447
H		11.16193166		12.87095476		3.90780845		 0.00389260		 0.00262579		-0.00563447
H		9.67783586		11.06758289		8.79256901		-0.00014177		 0.00076493		 0.00030664
H		0.71175153		4.33086818		0.97695211		 0.00014177		-0.00076493		-0.00030664
H		9.15907416		4.26762051		4.06412139		-0.00588355		-0.00048021		-0.00162479
H		1.23051323		11.13083055		5.70539973		 0.00588355		 0.00048021		 0.00162479
H		2.24997215		10.03022247		0.82064025		 0.00007142		-0.00049392		-0.00142477
H		8.13961524		5.36822859		8.94888087		-0.00007142		 0.00049392		 0.00142477
