# total energy = -117600.19051 eV

CRYSTAL
PRIMVEC
		10.58800046		-0.42351959		0.00000000
		-0.56388040		14.09699933		0.00000000
		-2.45392984		0.09815507		9.76951875
PRIMECORD
   156 1
Si		8.18274443		-0.31337568		0.72441051		-0.00014383		 0.00000534		 0.00013070
Si		-0.61255739		14.08501366		9.04511141		 0.00014383		-0.00000534		-0.00013070
Si		0.89523298		7.01534650		4.16034992		-0.00003549		 0.00008142		 0.00003717
Si		6.67495301		6.75629149		5.60917095		 0.00003549		-0.00008142		-0.00003717
Si		3.50799326		2.52875785		6.58055438		 0.00044448		-0.00039216		 0.00000650
Si		4.06219379		11.24288014		3.18896649		-0.00044448		 0.00039216		-0.00000650
Si		2.90329951		9.59016825		8.07372692		 0.00012837		-0.00024411		-0.00004725
Si		4.66688753		4.18146868		1.69579289		-0.00012837		 0.00024411		 0.00004725
Si		1.14107314		1.72069988		4.16914287		-0.00021158		-0.00014007		-0.00001106
Si		6.42911391		12.05093810		5.60037800		 0.00021158		 0.00014007		 0.00001106
Si		7.79648732		8.49170456		0.71561651		-0.00031769		 0.00013674		 0.00015714
Si		-0.22630027		5.27993236		9.05390330		 0.00031769		-0.00013674		-0.00015714
Si		6.79569763		1.46397292		5.59793551		-0.00026085		 0.00039634		-0.00010392
Si		0.77448836		12.30766401		4.17158535		 0.00026085		-0.00039634		 0.00010392
Si		-0.30962453		8.78540896		9.05634579		 0.00006584		-0.00014801		 0.00000241
Si		7.87981158		4.98622902		0.71317508		-0.00006584		 0.00014801		-0.00000241
Mg		4.06703319		-0.16268120		4.88476043		0.00000000		0.00000000		0.00000000
Mg		5.01206003		6.83673987		0.00000000		0.00000000		0.00000000		0.00000000
Mg		4.29732303		2.28423801		3.48175959		-0.00013769		-0.00012625		-0.00008046
Mg		3.27286402		11.48739891		6.28776128		 0.00013769		 0.00012625		 0.00008046
Mg		4.58496519		9.30995527		1.40300085		-0.00000178		 0.00003837		 0.00007874
Mg		2.98522080		4.46168165		8.36652002		 0.00000178		-0.00003837		-0.00007874
Mg		5.29400023		-0.21175980		0.00000000		0.00000000		0.00000000		0.00000000
Mg		3.78509299		6.88581952		4.88476043		0.00000000		0.00000000		0.00000000
Mg		6.19024941		-0.21256513		2.86383721		-0.00024898		-0.00008042		 0.00037565
Mg		1.37993658		13.98420205		6.90568366		 0.00024898		 0.00008042		-0.00037565
Mg		2.88603575		6.95682645		2.02092322		-0.00023957		-0.00032071		 0.00012010
Mg		4.68415024		6.81481154		7.74859764		 0.00023957		 0.00032071		-0.00012010
Mg		0.42151050		-0.01193374		1.48887461		 0.00011699		-0.00004170		-0.00001847
Mg		7.14867548		13.78357173		8.28064625		-0.00011699		 0.00004170		 0.00001847
Mg		8.65718747		6.69586090		3.39588476		 0.00005953		-0.00014888		-0.00012903
Mg		-1.08700148		7.07577603		6.37363611		-0.00005953		 0.00014888		 0.00012903
Mg		-0.86858499		0.03966893		6.20091052		-0.00006623		 0.00014916		 0.00008752
Mg		8.43877203		13.73196799		3.56861035		 0.00006623		-0.00014916		-0.00008752
Mg		7.49334995		6.74241435		8.45337079		-0.00000022		 0.00001102		 0.00019881
Mg		0.07683604		7.02922257		1.31615008		 0.00000022		-0.00001102		-0.00019881
Mg		3.19247922		-0.08871256		2.10484301		 0.00002819		-0.00036249		-0.00020099
Mg		4.37770783		13.86035055		7.66467786		-0.00002819		 0.00036249		 0.00020099
Mg		5.88349123		6.84086931		2.77991743		-0.00039989		 0.00009471		-0.00034132
Mg		1.68669582		6.93076762		6.98960450		 0.00039989		-0.00009471		 0.00034132
Mg		6.47531451		2.13279860		1.20761047		 0.00039018		-0.00027589		-0.00000262
Mg		1.09487148		11.63883938		8.56191040		-0.00039018		 0.00027589		 0.00000262
Mg		2.41212677		9.33254800		3.67714996		 0.00027891		 0.00012607		-0.00014727
Mg		5.15805921		4.43908893		6.09237091		-0.00027891		-0.00012607		 0.00014727
Mg		-1.73548301		2.50472082		9.47360181		 0.00016967		-0.00005201		-0.00025012
Mg		9.30566900		11.26691716		0.29591906		-0.00016967		 0.00005201		 0.00025012
Mg		8.16550610		9.14590395		5.18067949		-0.00000121		 0.00005046		-0.00019937
Mg		-0.59532011		4.62573404		4.58884244		 0.00000121		-0.00005046		 0.00019937
Mg		0.36901455		2.47923102		7.34638754		 0.00020584		 0.00017498		-0.00006438
Mg		7.20117144		11.29240590		2.42313438		-0.00020584		-0.00017498		 0.00006438
Mg		6.05630583		9.28896155		7.30789482		-0.00041509		-0.00007794		-0.00003480
Mg		1.51388122		4.48267537		2.46162605		 0.00041509		 0.00007794		 0.00003480
Mg		5.90485159		2.23992253		8.74235446		 0.00001450		-0.00000531		-0.00013850
Mg		1.66533440		11.53171440		1.02716747		-0.00001450		 0.00000531		 0.00013850
Mg		0.52190143		9.49246352		5.91192791		 0.00018040		 0.00002118		 0.00021242
Mg		7.04828561		4.27917446		3.85759296		-0.00018040		-0.00002118		-0.00021242
Mg		3.51023865		2.23212035		0.44060534		 0.00014674		 0.00011280		 0.00013248
Mg		4.05994733		11.53951763		9.32891553		-0.00014674		-0.00011280		-0.00013248
Mg		5.37874759		9.19460107		4.44415510		 0.00020763		-0.00033056		 0.00027123
Mg		2.19143839		4.57703585		5.32536577		-0.00020763		 0.00033056		-0.00027123
Mg		9.30449491		2.12603382		1.94237585		 0.00010612		-0.00047824		 0.00022301
Mg		-1.73430787		11.64560310		7.82714501		-0.00010612		 0.00047824		-0.00022301
Mg		-0.42557849		9.55245966		2.94238352		-0.00014668		-0.00014393		 0.00003573
Mg		7.99576554		4.21917833		6.82713629		 0.00014668		 0.00014393		-0.00003573
O		3.59150190		0.91473790		6.54167064		-0.00038312		 0.00045213		-0.00012601
O		3.97868515		12.85689903		3.22785022		 0.00038312		-0.00045213		 0.00012601
O		2.94885054		7.97766677		8.11260960		-0.00030212		 0.00026742		 0.00003101
O		4.62133650		5.79397121		1.65691127		 0.00030212		-0.00026742		-0.00003101
O		5.67367058		0.99612194		4.50667955		 0.00014447		 0.00008606		 0.00014021
O		1.89651646		12.77551498		5.26284132		-0.00014447		-0.00008606		-0.00014021
O		3.30742015		8.12799461		0.37808088		 0.00042988		 0.00000198		-0.00009492
O		4.26276583		5.64364338		9.39144104		-0.00042988		-0.00000198		 0.00009492
O		6.75206774		3.10778378		5.59402754		-0.00004995		 0.00044366		-0.00021327
O		0.81811825		10.66385315		4.17549333		 0.00004995		-0.00044366		 0.00021327
O		-0.39757097		10.43099155		9.06025376		-0.00013405		-0.00017469		 0.00020398
O		7.96775801		3.34064538		0.70926710		 0.00013405		 0.00017469		-0.00020398
O		6.45335121		0.94945298		7.12100387		-0.00026160		 0.00021600		-0.00013101
O		1.11683584		12.82218394		2.64851700		 0.00026160		-0.00021600		 0.00013101
O		0.07504736		8.24180808		7.53327743		 0.00002253		 0.00002762		-0.00002425
O		7.49513969		5.52982990		2.23624344		-0.00002253		-0.00002762		 0.00002425
O		1.09911960		3.36908841		4.15106953		 0.00020769		-0.00013495		 0.00010546
O		6.47106638		10.40254851		5.61845133		-0.00020769		 0.00013495		-0.00010546
O		7.70649152		10.14201635		0.73369090		 0.00037327		 0.00015980		-0.00007906
O		-0.13630447		3.62962163		9.03582997		-0.00037327		-0.00015980		 0.00007906
O		2.68401304		1.12415270		3.75344982		-0.00001776		 0.00013806		 0.00000805
O		4.88617294		12.64748423		6.01607104		 0.00001776		-0.00013806		-0.00000805
O		6.29640058		8.01688006		1.13130955		 0.00004466		 0.00012205		-0.00013504
O		1.27378541		5.75475687		8.63821026		-0.00004466		-0.00012205		 0.00013504
O		0.75139336		1.19582826		5.68195278		-0.00014816		-0.00006687		-0.00017739
O		6.81879263		12.57580866		4.08756703		 0.00014816		 0.00006687		 0.00017739
O		5.77553760		8.03208493		8.97232852		-0.00011861		 0.00018842		 0.00011072
O		1.79464839		5.73955200		0.79719341		 0.00011861		-0.00018842		-0.00011072
O		0.02557351		1.23893575		3.09791529		-0.00028468		-0.00006545		-0.00000258
O		7.54461353		12.53270224		6.67160558		 0.00028468		 0.00006545		 0.00000258
O		8.95416512		7.91901532		1.78684515		-0.00030058		 0.00015117		 0.00024222
O		-1.38397913		5.85262266		7.98267466		 0.00030058		-0.00015117		-0.00024222
O		3.84742247		3.24226672		5.17100704		-0.00007668		-0.00002544		 0.00003581
O		3.72276457		10.52937127		4.59851383		 0.00007668		 0.00002544		-0.00003581
O		2.50560881		10.33316073		9.48327427		-0.00001690		-0.00019357		-0.00009930
O		5.06457718		3.43847620		0.28624660		 0.00001690		 0.00019357		 0.00009930
O		4.52035323		3.17734852		7.61534177		 0.00027856		-0.00009066		 0.00031960
O		3.04983276		10.59428946		2.15417910		-0.00027856		 0.00009066		-0.00031960
O		1.83572347		10.32195602		7.03893953		 0.00004738		 0.00020093		 0.00017516
O		5.73446357		3.44968090		2.73058134		-0.00004738		-0.00020093		-0.00017516
O		4.82580911		1.00470296		1.68133401		 0.00021525		-0.00007249		 0.00026515
O		2.74437688		12.76693502		8.08818580		-0.00021525		 0.00007249		-0.00026515
O		4.15731191		8.06866499		3.20342643		-0.00000013		-0.00007196		-0.00030303
O		3.41287513		5.70297193		6.56609550		 0.00000013		 0.00007196		 0.00030303
O		4.63724180		0.86164854		9.47448132		-0.00018972		 0.00072465		 0.00003745
O		2.93294419		12.90998839		0.29503955		 0.00018972		-0.00072465		-0.00003745
O		1.90401240		8.00820049		5.17979999		 0.00022012		-0.00021912		-0.00004940
O		5.66617358		5.76343749		4.58972088		-0.00022012		 0.00021912		 0.00004940
O		7.81357942		0.75289170		2.14147923		-0.00003267		 0.00004897		 0.00000575
O		-0.24339237		13.01874523		7.62804164		 0.00003267		-0.00004897		-0.00000575
O		1.18014337		8.05545226		2.74328120		 0.00027927		-0.00009799		-0.00013202
O		6.39004262		5.71618467		7.02623966		-0.00027927		 0.00009799		 0.00013202
O		-1.14365020		1.05066090		8.03054632		-0.00023781		 0.00052099		-0.00008963
O		8.71383724		12.72097602		1.73897349		 0.00023781		-0.00052099		 0.00008963
O		7.68828785		7.73460607		6.62373498		-0.00008212		 0.00022598		-0.00002447
O		-0.11810080		6.03703086		3.14578588		 0.00008212		-0.00022598		 0.00002447
O		9.60855206		0.73598398		0.27256974		-0.00004178		-0.00014417		-0.00000452
O		-2.03836607		13.03565401		9.49695113		 0.00004178		 0.00014417		 0.00000452
O		-0.61922892		8.18231740		4.61219069		 0.00011783		-0.00004222		-0.00014934
O		8.18941491		5.58931953		5.15733018		-0.00011783		 0.00004222		 0.00014934
O		1.31668732		0.98039679		8.63430334		-0.00001816		-0.00022016		-0.00013293
O		6.25349972		12.79124014		1.13521753		 0.00001816		 0.00022016		 0.00013293
O		5.22569540		7.86125928		6.01997796		-0.00041597		 0.00056553		 0.00018402
O		2.34449164		5.91037870		3.74954185		 0.00041597		-0.00056553		-0.00018402
O		1.99519288		0.94621894		0.69461325		 0.00020985		-0.00012234		-0.00013449
O		5.57499310		12.82541798		9.07490762		-0.00020985		 0.00012234		 0.00013449
O		7.00168659		7.78318239		4.19014824		 0.00021122		 0.00005064		-0.00004832
O		0.56850046		5.98845453		5.57937262		-0.00021122		-0.00005064		 0.00004832
O		2.07771287		3.28349863		6.99009194		 0.00036552		 0.00035589		 0.00004873
O		5.49247418		10.48813935		2.77942893		-0.00036552		-0.00035589		-0.00004873
O		4.27768672		10.23272211		7.66418937		 0.00009539		 0.00006627		-0.00019710
O		3.29250033		3.53891481		2.10533150		-0.00009539		-0.00006627		 0.00019710
O		8.30707384		0.86685988		5.16319214		-0.00028634		 0.00023065		 0.00000373
O		-0.73688785		12.90477810		4.60632873		 0.00028634		-0.00023065		-0.00000373
O		-1.77800028		8.30748498		9.49108916		-0.00017112		 0.00004528		-0.00033655
O		9.34818627		5.46415194		0.27843171		 0.00017112		-0.00004528		 0.00033655
O		-0.98789273		3.52575612		6.22220836		-0.00030645		-0.00026863		 0.00017162
O		8.55807977		10.24588186		3.54731251		 0.00030645		 0.00026863		-0.00017162
O		7.33370675		10.23011432		8.43207295		-0.00016335		 0.00042646		 0.00005619
O		0.23648030		3.54152260		1.33744686		 0.00016335		-0.00042646		-0.00005619
O		8.72713369		3.14278391		3.55512953		-0.00004987		 0.00037847		 0.00013946
O		-1.15694664		10.62885302		6.21439240		 0.00004987		-0.00037847		-0.00013946
O		0.07216194		10.52620610		1.32963197		 0.00033163		-0.00002439		-0.00029547
O		7.49802405		3.24543188		8.43988890		-0.00033163		 0.00002439		 0.00029547
H		-1.31648917		2.76902744		5.86171337		-0.00008548		 0.00031657		 0.00024036
H		8.88667622		11.00261054		3.90780750		 0.00008548		-0.00031657		-0.00024036
H		7.72399053		9.44463107		8.79256899		-0.00012354		 0.00027069		-0.00062945
H		-0.15380454		4.32700691		0.97695187		 0.00012354		-0.00027069		 0.00062945
H		8.58391608		2.52782960		4.06412128		-0.00026281		 0.00044544		-0.00030661
H		-1.01373009		11.24380733		5.70539959		 0.00026281		-0.00044544		 0.00030661
H		0.26511407		9.89780488		0.82064021		 0.00003565		 0.00037127		 0.00014712
H		7.30507192		3.87383311		8.94888066		-0.00003565		-0.00037127		-0.00014712
