# total energy = -117592.206134 eV

CRYSTAL
PRIMVEC
		10.58799680		0.84703762		0.00000000
		1.12776189		14.09700244		0.00000000
		-2.45392890		-0.19631261		9.76952128
PRIMECORD
   156 1
Si		8.18441855		0.66861960		0.72440969		 0.00011284		 0.00016430		-0.00001928
Si		1.07740806		14.07910572		9.04511053		-0.00011284		-0.00016430		 0.00001928
Si		1.74272746		7.15667391		4.16034989		 0.00029303		-0.00022160		-0.00016085
Si		7.51909915		7.59105035		5.60917139		-0.00029303		 0.00022160		 0.00016085
Si		3.82879592		2.96254873		6.58055343		-0.00006439		-0.00008157		 0.00038835
Si		5.43303069		11.78517553		3.18896679		 0.00006439		 0.00008157		-0.00038835
Si		4.06992096		9.98522829		8.07372636		 0.00003052		 0.00014658		-0.00032139
Si		5.19190565		4.76249703		1.69579279		-0.00003052		-0.00014658		 0.00032139
Si		1.35337269		1.86612123		4.16914264		 0.00004030		-0.00026389		-0.00003015
Si		7.90845286		12.88160516		5.60037758		-0.00004030		 0.00026389		 0.00003015
Si		8.85460806		9.46960867		0.71561694		 0.00022746		-0.00007240		 0.00000018
Si		0.40721855		5.27811558		9.05390328		-0.00022746		 0.00007240		-0.00000018
Si		7.00432822		2.28780246		5.59793562		 0.00029747		-0.00012630		-0.00001814
Si		2.25749839		12.45992286		4.17158460		-0.00029747		 0.00012630		 0.00001814
Si		0.74482484		8.79043204		9.05634630		 0.00008364		 0.00005514		-0.00020035
Si		8.51700177		5.95729434		0.71317498		-0.00008364		-0.00005514		 0.00020035
Mg		4.06703289		0.32536250		4.88475958		0.00000000		0.00000000		0.00000000
Mg		5.85787935		7.47202003		0.00000000		0.00000000		0.00000000		0.00000000
Mg		4.59253080		2.81172622		3.48175958		 0.00010308		-0.00063133		-0.00014691
Mg		4.66929581		11.93600016		6.28776063		-0.00010308		 0.00063133		 0.00014691
Mg		5.72599237		9.90579189		1.40300106		 0.00037496		-0.00001843		 0.00013951
Mg		3.53583318		4.84193237		8.36652022		-0.00037496		 0.00001843		-0.00013951
Mg		5.29399946		0.42351987		0.00000000		0.00000000		0.00000000		0.00000000
Mg		4.63091277		7.37386266		4.88475958		0.00000000		0.00000000		0.00000000
Mg		6.19446063		0.53043388		2.86383690		 0.00036486		 0.00037648		 0.00004550
Mg		3.06736492		14.21729144		6.90568438		-0.00036486		-0.00037648		-0.00004550
Mg		3.73606843		7.33715150		2.02092268		-0.00011723		 0.00035925		-0.00057744
Mg		5.52575818		7.41057276		7.74859754		 0.00011723		-0.00035925		 0.00057744
Mg		0.42210292		0.03867089		1.48887534		-0.00000653		-0.00031148		 0.00027026
Mg		8.83972263		14.70905443		8.28064593		 0.00000653		 0.00031148		-0.00027026
Mg		9.50359852		7.76857932		3.39588529		 0.00007772		-0.00008723		-0.00012932
Mg		-0.24177297		6.97914493		6.37363598		-0.00007772		 0.00008723		 0.00012932
Mg		-0.86799342		-0.06453716		6.20091126		 0.00046164		-0.00026830		-0.00002720
Mg		10.12982003		14.81226248		3.56861002		-0.00046164		 0.00026830		 0.00002720
Mg		8.33976171		7.67547263		8.45337065		-0.00036447		-0.00009981		 0.00008034
Mg		0.92206384		7.07225162		1.31614956		 0.00036447		 0.00009981		-0.00008034
Mg		3.19716471		0.29457195		2.10484255		-0.00008247		 0.00023670		 0.00028351
Mg		6.06466190		14.45315231		7.66467767		 0.00008247		-0.00023670		-0.00028351
Mg		6.73399635		7.58090757		2.77991703		 0.00018205		 0.00004165		 0.00022483
Mg		2.52783026		7.16681669		6.98960425		-0.00018205		-0.00004165		-0.00022483
Mg		6.76279212		2.92133498		1.20761042		 0.00028054		 0.00031995		 0.00000446
Mg		2.49903449		11.82638928		8.56190980		-0.00028054		-0.00031995		-0.00000446
Mg		3.54542469		9.66733611		3.67715022		 0.00010873		 0.00004164		 0.00011850
Mg		5.71640192		5.08039027		6.09237106		-0.00010873		-0.00004164		-0.00011850
Mg		-1.44277768		2.30817088		9.47360142		-0.00014942		 0.00007925		 0.00037944
Mg		10.70460429		12.43955338		0.29591880		 0.00014942		-0.00007925		-0.00037944
Mg		9.30403032		10.17130464		5.18067838		-0.00013246		-0.00068860		-0.00025587
Mg		-0.04220371		4.57641961		4.58884184		 0.00013246		 0.00068860		 0.00025587
Mg		0.66877362		2.53550347		7.34638718		 0.00002827		 0.00032890		-0.00003812
Mg		8.59305299		12.21222185		2.42313410		-0.00002827		-0.00032890		 0.00003812
Mg		7.20188359		10.06154187		7.30789474		 0.00002244		 0.00011956		 0.00021567
Mg		2.05994196		4.68618239		2.46162548		-0.00002244		-0.00011956		-0.00021567
Mg		6.20246205		2.96040949		8.74235340		 0.00033734		-0.00002509		 0.00000841
Mg		3.05936350		11.78731476		1.02716682		-0.00033734		 0.00002509		-0.00000841
Mg		1.66533045		9.60082860		5.91192746		 0.00006251		-0.00028061		 0.00031668
Mg		7.59649616		5.14689672		3.85759276		-0.00006251		 0.00028061		-0.00031668
Mg		3.79539877		2.66475518		0.44060508		 0.00004377		-0.00078109		 0.00005696
Mg		5.46642784		12.08297120		9.32891620		-0.00004377		 0.00078109		-0.00005696
Mg		6.50972815		9.88528964		4.44415450		-0.00021143		 0.00007577		 0.00014362
Mg		2.75209846		4.86243462		5.32536572		 0.00021143		-0.00007577		-0.00014362
Mg		9.60476080		3.25458419		1.94237639		 0.00031482		-0.00003515		 0.00001972
Mg		-0.34293525		11.49314113		7.82714489		-0.00031482		 0.00003515		-0.00001972
Mg		0.72050723		9.54723405		2.94238425		 0.00019192		 0.00032141		 0.00043578
Mg		8.54131832		5.20049233		6.82713596		-0.00019192		-0.00032141		-0.00043578
O		3.71871343		1.35080646		6.54167117		 0.00004643		-0.00012901		-0.00012376
O		5.54311424		13.39691780		3.22785011		-0.00004643		 0.00012901		 0.00012376
O		3.92188243		8.37045030		8.11260969		-0.00040802		-0.00010580		-0.00004394
O		5.33994524		6.37727608		1.65691053		 0.00040802		 0.00010580		 0.00004394
O		5.82067427		1.68284266		4.50667988		 0.00014879		-0.00003988		 0.00000277
O		3.44115234		13.06488160		5.26284140		-0.00014879		 0.00003988		-0.00000277
O		4.30024361		8.56459818		0.37808076		-0.00026973		-0.00001894		 0.00004816
O		4.96158301		6.18312714		9.39144052		 0.00026973		 0.00001894		-0.00004816
O		7.15806218		3.93427173		5.59402785		 0.00003648		-0.00010122		-0.00037907
O		2.10376443		10.81345252		4.17549343		-0.00003648		 0.00010122		 0.00037907
O		0.85424241		10.43335574		9.06025407		-0.00058958		-0.00015403		 0.00038994
O		8.40758421		4.31436851		0.70926721		 0.00058958		 0.00015403		-0.00038994
O		6.59849369		1.72966049		7.12100369		-0.00013576		-0.00014385		-0.00009508
O		2.66333292		13.01806377		2.64851653		 0.00013576		 0.00014385		 0.00009508
O		1.06600978		8.29045200		7.53327717		-0.00027896		-0.00019776		-0.00006370
O		8.19581683		6.45727331		2.23624305		 0.00027896		 0.00019776		 0.00006370
O		1.50934254		3.51739156		4.15106854		 0.00026972		-0.00025601		-0.00017279
O		7.75248301		11.23033375		5.61845062		-0.00026972		 0.00025601		 0.00017279
O		8.96253432		11.11703603		0.73369104		-0.00039898		-0.00014702		-0.00007223
O		0.29929335		3.63068929		9.03583024		 0.00039898		 0.00014702		 0.00007223
O		2.83203090		1.45215569		3.75344999		 0.00009217		-0.00025782		-0.00025400
O		6.42979465		13.29556963		6.01607129		-0.00009217		 0.00025782		 0.00025400
O		7.29024020		8.81220147		1.13130958		 0.00035655		-0.00015499		-0.00019743
O		1.97158747		5.93552278		8.63820957		-0.00035655		 0.00015499		 0.00019743
O		0.89873512		1.29188931		5.68195321		 0.00019422		-0.00019728		 0.00000407
O		8.36309043		13.45583601		4.08756701		-0.00019422		 0.00019728		-0.00000407
O		6.76869998		8.76487698		8.97232765		-0.00048894		 0.00000413		-0.00033327
O		2.49312557		5.98284940		0.79719257		 0.00048894		-0.00000413		 0.00033327
O		0.17460585		1.24796593		3.09791542		-0.00007706		-0.00015253		 0.00011952
O		9.08721970		13.49975833		6.67160586		 0.00007706		 0.00015253		-0.00011952
O		9.94901741		9.03330862		1.78684522		-0.00016214		-0.00011459		 0.00042370
O		-0.68719186		5.71441670		7.98267500		 0.00016214		 0.00011459		-0.00042370
O		4.25561494		3.72028440		5.17100720		-0.00020190		-0.00015205		 0.00030613
O		5.00621167		11.02744092		4.59851408		 0.00020190		 0.00015205		-0.00030613
O		3.75962234		10.68399476		9.48327365		-0.00034416		 0.00013476		-0.00045245
O		5.50220534		4.06372950		0.28624656		 0.00034416		-0.00013476		 0.00045245
O		4.92397855		3.73593566		7.61534141		-0.00005057		 0.00022942		 0.00014771
O		4.33784806		11.01178860		2.15417881		 0.00005057		-0.00022942		-0.00014771
O		3.08516817		10.59222111		7.03893945		-0.00014544		-0.00012910		-0.00014118
O		6.17665738		4.15550528		2.73058077		 0.00014544		 0.00012910		 0.00014118
O		4.96976819		1.58955752		1.68133436		-0.00008636		-0.00035910		-0.00002637
O		4.29205843		13.15816674		8.08818586		 0.00008636		 0.00035910		 0.00002637
O		5.14709003		8.60713329		3.20342628		 0.00020480		-0.00034838		-0.00003859
O		4.11473552		6.14059203		6.56609500		-0.00020480		 0.00034838		 0.00003859
O		4.76310035		1.42315173		9.47448090		 0.00009775		 0.00048789		 0.00042489
O		4.49872626		13.32457253		0.29504037		-0.00009775		-0.00048789		-0.00042489
O		2.87568980		8.27554852		5.17979995		-0.00001159		-0.00039043		 0.00003502
O		6.38613575		6.47217574		4.58972133		 0.00001159		 0.00039043		-0.00003502
O		7.94163544		1.69564408		2.14147935		-0.00019162		 0.00005468		-0.00002834
O		1.32019117		13.05208123		7.62804193		 0.00019162		-0.00005468		 0.00002834
O		2.15401948		8.23602364		2.74328129		-0.00002939		-0.00001871		-0.00007176
O		7.10780607		6.51170062		7.02623999		 0.00002939		 0.00001871		 0.00007176
O		-1.02286710		0.91825485		8.03054545		-0.00028155		-0.00005452		 0.00008267
O		10.28469371		13.82947047		1.73897370		 0.00028155		 0.00005452		-0.00008267
O		8.65489115		8.69586485		6.62373434		-0.00009544		-0.00015492		 0.00056197
O		0.60693546		6.05186047		3.14578587		 0.00009544		 0.00015492		-0.00056197
O		9.74320676		1.89439547		0.27256990		 0.00046188		-0.00015387		-0.00026963
O		-0.48138015		12.85332985		9.49695032		-0.00046188		 0.00015387		 0.00026963
O		0.36124622		8.14722835		4.61219074		 0.00038326		-0.00039648		-0.00012710
O		8.90058039		6.60049591		5.15732947		-0.00038326		 0.00039648		 0.00012710
O		1.44085406		1.14336642		8.63430286		 0.00026755		-0.00057339		 0.00023631
O		7.82097255		13.60435890		1.13521842		-0.00026755		 0.00057339		-0.00023631
O		6.19568214		8.52714137		6.01997799		-0.00038182		 0.00008680		-0.00030501
O		3.06614447		6.22058395		3.74954222		 0.00038182		-0.00008680		 0.00030501
O		2.11851390		1.19057513		0.69461334		-0.00035879		-0.00051856		 0.00010911
O		7.14331271		13.55715019		9.07490794		 0.00035879		 0.00051856		-0.00010911
O		7.97082635		8.66215011		4.19014837		-0.00017470		-0.00022463		 0.00016633
O		1.29099920		6.08557521		5.57937291		 0.00017470		 0.00022463		-0.00016633
O		2.48235291		3.54900956		6.99009179		-0.00002989		-0.00039341		 0.00033610
O		6.77947370		11.19871576		2.77942843		 0.00002989		 0.00039341		-0.00033610
O		5.52814703		10.79606247		7.66418907		-0.00012460		-0.00004383		-0.00036964
O		3.73367959		3.95166179		2.10533221		 0.00012460		 0.00004383		 0.00036964
O		8.45120168		1.86947347		5.16319166		-0.00008555		-0.00030513		-0.00029043
O		0.81062387		12.87825184		4.60632856		 0.00008555		 0.00030513		 0.00029043
O		-0.78805249		8.13372269		9.49108919		-0.00034112		 0.00003853		-0.00055154
O		10.04987910		6.61400156		0.27843208		 0.00034112		-0.00003853		 0.00055154
O		-0.56887427		3.42396941		6.22220803		 0.00023527		 0.00005882		-0.00011274
O		9.83070088		11.32375591		3.54731325		-0.00023527		-0.00005882		 0.00011274
O		8.59854554		11.16075123		8.43207283		 0.00004211		-0.00040444		-0.00024154
O		0.66328001		3.58697303		1.33744739		-0.00004211		 0.00040444		 0.00024154
O		9.14682940		4.20682782		3.55512879		 0.00009739		 0.00015281		 0.00033550
O		0.11499721		10.54089644		6.21439142		-0.00009739		-0.00015281		-0.00033550
O		1.33767788		10.58548580		1.32963185		 0.00039545		-0.00054675		-0.00050531
O		7.92414767		4.16223951		8.43988837		-0.00039545		 0.00054675		 0.00050531
H		-0.99000317		2.62410757		5.86171277		 0.00088259		 0.00003054		-0.00043837
H		10.25182872		12.12361669		3.90780745		-0.00088259		-0.00003054		 0.00043837
H		8.89629767		10.41840127		8.79256915		 0.00001933		 0.00015757		 0.00007404
H		0.36552894		4.32932298		0.97695213		-0.00001933		-0.00015757		-0.00007404
H		8.92901077		3.57170415		4.06412038		 0.00033826		-0.00028044		-0.00032318
H		0.33281584		11.17602223		5.70539983		-0.00033826		 0.00028044		 0.00032318
H		1.45602947		9.97725448		0.82064025		-0.00004939		-0.00030118		-0.00025344
H		7.80579821		4.77047084		8.94888102		 0.00004939		 0.00030118		 0.00025344
