# total energy = -117580.295655 eV

CRYSTAL
PRIMVEC
		10.58800155		-1.27055763		0.00000000
		-1.69163479		14.09699922		0.00000000
		-2.45393737		0.29447462		9.76952122
PRIMECORD
   156 1
Si		8.18162651		-0.96804025		0.72441033		 0.00011297		 0.00015847		 0.00010371
Si		-1.73920139		14.08895327		9.04511089		-0.00011297		-0.00015847		-0.00010371
Si		0.33023728		6.92112820		4.16035028		-0.00020908		 0.00025596		-0.00009640
Si		6.11218998		6.19978375		5.60917094		 0.00020908		-0.00025596		 0.00009640
Si		3.29412526		2.23956403		6.58055434		-0.00042899		-0.00024274		 0.00002212
Si		3.14830199		10.88134792		3.18896688		 0.00042899		 0.00024274		-0.00002212
Si		2.12555029		9.32679408		8.07372642		-0.00002808		 0.00006259		-0.00001827
Si		4.31687696		3.79411787		1.69579267		 0.00002808		-0.00006259		 0.00001827
Si		0.99953946		1.62375334		4.16914271		 0.00013545		-0.00000231		-0.00031828
Si		5.44288780		11.49715967		5.60037744		-0.00013545		 0.00000231		 0.00031828
Si		7.09107334		7.83976978		0.71561683		-0.00013440		-0.00006991		 0.00002907
Si		-0.64864715		5.28114217		9.05390332		 0.00013440		 0.00006991		-0.00002907
Si		6.65661184		0.91475350		5.59793539		 0.00002785		-0.00005732		-0.00003891
Si		-0.21418459		12.20615738		4.17158476		-0.00002785		 0.00005732		 0.00003891
Si		-1.01259215		8.78205976		9.05634537		 0.00005862		 0.00015273		 0.00010812
Si		7.45501833		4.33885219		0.71317478		-0.00005862		-0.00015273		-0.00010812
Mg		4.06703315		-0.48804364		4.88475954		0.00000000		0.00000000		0.00000000
Mg		4.44818018		6.41321973		0.00000000		0.00000000		0.00000000		0.00000000
Mg		4.10051693		1.93257952		3.48175979		 0.00021566		-0.00000183		-0.00009288
Mg		2.34190926		11.18833136		6.28776036		-0.00021566		 0.00000183		 0.00009288
Mg		3.82427981		8.91273061		1.40300082		-0.00018479		-0.00002729		-0.00009618
Mg		2.61814744		4.20818134		8.36651933		 0.00018479		 0.00002729		 0.00009618
Mg		5.29399971		-0.63527988		0.00000000		0.00000000		0.00000000		0.00000000
Mg		3.22121256		6.56045597		4.88475954		0.00000000		0.00000000		0.00000000
Mg		6.18744129		-0.70789719		2.86383657		 0.00031762		-0.00034616		-0.00015187
Mg		0.25498597		13.82880914		6.90568358		-0.00031762		 0.00034616		 0.00015187
Mg		2.31934752		6.70327627		2.02092297		-0.00006148		 0.00013012		-0.00006845
Mg		4.12307760		6.41763568		7.74859825		 0.00006148		-0.00013012		 0.00006845
Mg		0.42111662		-0.04567055		1.48887450		 0.00029481		-0.00038252		-0.00022693
Mg		6.02130957		13.16658250		8.28064565		-0.00029481		 0.00038252		 0.00022693
Mg		8.09291302		5.98071507		3.39588504		-0.00011678		-0.00022717		 0.00003580
Mg		-1.65048576		7.14019688		6.37363618		 0.00011678		 0.00022717		-0.00003580
Mg		-0.86897952		0.10914137		6.20091093		-0.00021957		-0.00024273		 0.00013037
Mg		7.31140677		13.01177164		3.56861028		 0.00021957		 0.00024273		-0.00013037
Mg		6.92907605		6.12037457		8.45337089		 0.00008599		-0.00064101		 0.00078131
Mg		-0.48664879		7.00053738		1.31615033		-0.00008599		 0.00064101		-0.00078131
Mg		3.18935504		-0.34423586		2.10484301		 0.00019145		-0.00027887		-0.00002728
Mg		3.25307221		13.46514781		7.66467821		-0.00019145		 0.00027887		 0.00002728
Mg		5.31648680		6.34750947		2.77991653		-0.00003323		-0.00005591		 0.00068640
Mg		1.12594045		6.77340141		6.98960362		 0.00003323		 0.00005591		-0.00068640
Mg		6.28366327		1.60710690		1.20761040		 0.00011313		-0.00005903		-0.00002528
Mg		0.15876398		11.51380505		8.56190975		-0.00011313		 0.00005903		 0.00002528
Mg		1.65659621		9.10935699		3.67715021		 0.00034542		 0.00016163		-0.00023013
Mg		4.78583104		4.01155496		6.09237101		-0.00034542		-0.00016163		 0.00023013
Mg		-1.93061948		2.63575364		9.47360163		 0.00021035		-0.00010516		-0.00042550
Mg		8.37304567		10.48515831		0.29591852		-0.00021035		 0.00010516		 0.00042550
Mg		7.40648985		8.46230303		5.18067913		-0.00005081		-0.00017682		-0.00003764
Mg		-0.96406259		4.65860999		4.58884209		 0.00005081		 0.00017682		 0.00003764
Mg		0.16917628		2.44171647		7.34638670		 0.00024495		 0.00005559		 0.00008823
Mg		6.27325098		10.67919548		2.42313345		-0.00024495		-0.00005559		-0.00008823
Mg		5.29258567		8.77390930		7.30789513		-0.00038998		-0.00010183		-0.00026222
Mg		1.14983946		4.34700265		2.46162609		 0.00038998		 0.00010183		 0.00026222
Mg		5.70644439		1.75959834		8.74235357		 0.00013718		-0.00003683		 0.00020110
Mg		0.73598073		11.36131254		1.02716658		-0.00013718		 0.00003683		-0.00020110
Mg		-0.24038594		9.42021998		5.91192826		 0.00027557		-0.00005449		 0.00001203
Mg		6.68281320		3.70069197		3.85759296		-0.00027557		 0.00005449		-0.00001203
Mg		3.32013146		1.94369563		0.44060501		 0.00013174		-0.00010153		-0.00004696
Mg		3.12229366		11.17721632		9.32891621		-0.00013174		 0.00010153		 0.00004696
Mg		4.62476044		8.73414232		4.44415454		 0.00007728		 0.00044072		-0.00006364
Mg		1.81766468		4.38676963		5.32536562		-0.00007728		-0.00044072		 0.00006364
Mg		9.10431826		1.37366746		1.94237544		-0.00010325		-0.00019834		-0.00007780
Mg		-2.66189101		11.74724449		7.82714472		 0.00010325		 0.00019834		 0.00007780
Mg		-1.18963629		9.55594341		2.94238411		-0.00012827		-0.00002852		 0.00040524
Mg		7.63206248		3.56496748		6.82713604		 0.00012827		 0.00002852		-0.00040524
O		3.50669426		0.62402620		6.54167141		-0.00017971		-0.00018319		 0.00014179
O		2.93573299		12.49688575		3.22784981		 0.00017971		 0.00018319		-0.00014179
O		2.30016306		7.71581083		8.11260935		-0.00037896		 0.00003768		-0.00009944
O		4.14226313		5.40510112		1.65691080		 0.00037896		-0.00003768		 0.00009944
O		5.57566797		0.53830928		4.50667947		 0.00002724		-0.00053544		 0.00017768
O		0.86675821		12.58260373		5.26284068		-0.00002724		 0.00053544		-0.00017768
O		2.64553782		7.83692570		0.37808114		-0.00025128		 0.00013189		 0.00006545
O		3.79688943		5.28398625		9.39144115		 0.00025128		-0.00013189		-0.00006545
O		6.48140617		2.55679234		5.59402812		 0.00056697		-0.00004157		 0.00026361
O		-0.03897891		10.56411961		4.17549310		-0.00056697		 0.00004157		-0.00026361
O		-1.23211405		10.42941565		9.06025371		-0.00014154		-0.00003931		-0.00022849
O		7.67454024		2.69149630		0.70926751		 0.00014154		 0.00003931		 0.00022849
O		6.35658877		0.42931507		7.12100388		-0.00008149		 0.00026485		 0.00008560
O		0.08583742		12.69159688		2.64851734		 0.00008149		-0.00026485		-0.00008560
O		-0.58559542		8.20937733		7.53327688		-0.00002407		 0.00034452		 0.00015750
O		7.02802054		4.91153355		2.23624327		 0.00002407		-0.00034452		-0.00015750
O		0.82563905		3.27021879		4.15106943		-0.00017145		-0.00011449		 0.00017704
O		5.61678821		9.85069316		5.61845072		 0.00017145		 0.00011449		-0.00017704
O		6.86912859		9.49200230		0.73369118		 0.00023366		 0.00001518		-0.00003760
O		-0.42670347		3.62890965		9.03583004		-0.00023366		-0.00001518		 0.00003760
O		2.58533443		0.90548545		3.75344979		 0.00022517		-0.00003747		-0.00017500
O		3.85709176		12.21542650		6.01607143		-0.00022517		 0.00003747		 0.00017500
O		5.63384201		7.48666577		1.13130976		-0.00007316		-0.00021035		-0.00006757
O		0.80858417		5.63424618		8.63820933		 0.00007316		 0.00021035		 0.00006757
O		0.65316547		1.13178750		5.68195247		-0.00029016		-0.00008864		-0.00037419
O		5.78926071		11.98912338		4.08756661		 0.00029016		 0.00008864		 0.00037419
O		5.11343112		7.54355800		8.97232829		-0.00037179		-0.00016259		 0.00003307
O		1.32899613		5.57735395		0.79719293		 0.00037179		 0.00016259		-0.00003307
O		-0.07378288		1.23291598		3.09791478		-0.00018464		 0.00034345		-0.00012633
O		6.51620907		11.88799597		6.67160537		 0.00018464		-0.00034345		 0.00012633
O		8.29092891		7.17615149		1.78684476		-0.00003452		 0.00013314		 0.00004944
O		-1.84850272		5.94475939		7.98267539		 0.00003452		-0.00013314		-0.00004944
O		3.57529445		2.92358781		5.17100691		-0.00018975		-0.00013066		 0.00008193
O		2.86713280		10.19732521		4.59851430		 0.00018975		 0.00013066		-0.00008193
O		1.66960091		10.09927222		9.48327385		-0.00027141		 0.00004631		 0.00002324
O		4.77282634		3.02163973		0.28624737		 0.00027141		-0.00004631		-0.00002324
O		4.25127014		2.80495658		7.61534139		-0.00032757		-0.00005916		-0.00015680
O		2.19115711		10.31595431		2.15417876		 0.00032757		 0.00005916		 0.00015680
O		1.00275891		10.14177983		7.03893937		 0.00002585		-0.00014279		-0.00015559
O		5.43966728		2.97913212		2.73058078		-0.00002585		 0.00014279		 0.00015559
O		4.72983672		0.61479868		1.68133447		 0.00048321		-0.00030943		 0.00022935
O		1.71258947		12.50611327		8.08818568		-0.00048321		 0.00030943		-0.00022935
O		3.49745927		7.70968545		3.20342614		 0.00024384		-0.00006944		-0.00013647
O		2.94496692		5.41122543		6.56609508		-0.00024384		 0.00006944		 0.00013647
O		4.55333643		0.48731316		9.47448034		-0.00037069		 0.00013525		 0.00007237
O		1.88908976		12.63359879		0.29503981		 0.00037069		-0.00013525		-0.00007237
O		1.25622740		7.82996747		5.17980042		-0.00012099		-0.00020953		 0.00012943
O		5.18619986		5.29094342		4.58972080		 0.00012099		 0.00020953		-0.00012943
O		7.72820662		0.12439084		2.14147905		-0.00038094		-0.00011888		-0.00042703
O		-1.28578150		12.99652111		7.62804217		 0.00038094		 0.00011888		 0.00042703
O		0.53089250		7.93507040		2.74328049		-0.00008565		-0.00004635		-0.00014843
O		5.91153476		5.18584155		7.02623966		 0.00008565		 0.00004635		 0.00014843
O		-1.22417153		1.13893342		8.03054591		-0.00007639		-0.00011488		-0.00056188
O		7.66659878		11.98197959		1.73897424		 0.00007639		 0.00011488		 0.00056188
O		7.04388638		7.09376706		6.62373485		-0.00046637		-0.00024697		-0.00032121
O		-0.60145913		6.02714489		3.14578637		 0.00046637		 0.00024697		 0.00032121
O		9.51878270		-0.03629053		0.27256978		 0.00000307		 0.00015706		 0.00003012
O		-3.07635545		13.15720354		9.49695038		-0.00000307		-0.00015706		-0.00003012
O		-1.27287810		8.20570893		4.61219083		-0.00015514		 0.00001582		-0.00005729
O		7.71530536		4.91520195		5.15733038		 0.00015514		-0.00001582		 0.00005729
O		1.23390986		0.87175108		8.63430312		-0.00032739		-0.00063118		-0.00009256
O		5.20851740		12.24916087		1.13521810		 0.00032739		 0.00063118		 0.00009256
O		4.57903658		7.41733723		6.01997764		-0.00022414		 0.00039195		-0.00000522
O		1.86338854		5.70357472		3.74954144		 0.00022414		-0.00039195		 0.00000522
O		1.91297916		0.78331485		0.69461309		 0.00009501		 0.00005759		 0.00044901
O		4.52944703		12.33759710		9.07490813		-0.00009501		-0.00005759		-0.00044901
O		6.35559275		7.19720322		4.19014752		-0.00037066		-0.00023060		-0.00003419
O		0.08683343		5.92370873		5.57937263		 0.00037066		 0.00023060		 0.00003419
O		1.80795301		3.10649074		6.99009203		-0.00030365		 0.00009203		-0.00029543
O		4.63447425		10.01442121		2.77942919		 0.00030365		-0.00009203		 0.00029543
O		3.44404669		9.85716191		7.66418873		-0.00011696		-0.00004763		 0.00008055
O		2.99837950		3.26375110		2.10533249		 0.00011696		 0.00004763		-0.00008055
O		8.21098866		0.19844991		5.16319236		 0.00000126		 0.00018526		 0.00006586
O		-1.76856247		12.92246204		4.60632885		-0.00000126		-0.00018526		-0.00006586
O		-2.43796489		8.42332732		9.49108840		 0.00034785		-0.00017436		 0.00026123
O		8.88039215		4.69758463		0.27843175		-0.00034785		 0.00017436		-0.00026123
O		-1.26724007		3.59361301		6.22220793		 0.00015090		-0.00018785		 0.00024826
O		7.70966626		9.52729894		3.54731329		-0.00015090		 0.00018785		-0.00024826
O		6.49048120		9.60968764		8.43207283		-0.00005199		-0.00013107		 0.00036707
O		-0.04805394		3.51122324		1.33744732		 0.00005199		 0.00013107		-0.00036707
O		8.44733616		2.43342204		3.55512890		-0.00008827		-0.00027563		-0.00029621
O		-2.00490997		10.68749097		6.21439231		 0.00008827		 0.00027563		 0.00029621
O		-0.77151518		10.48668432		1.32963170		-0.00029325		-0.00010395		 0.00009479
O		7.21394137		2.63422656		8.43988845		 0.00029325		 0.00010395		-0.00009479
H		-1.53414728		2.86563985		5.86171273		 0.00028918		 0.00031094		-0.00048792
H		7.97657347		10.25527210		3.90780742		-0.00028918		-0.00031094		 0.00048792
H		6.94245399		8.79544943		8.79256910		-0.00021758		-0.00034067		-0.00011540
H		-0.50002673		4.32546145		0.97695212		 0.00021758		 0.00034067		 0.00011540
H		8.35385268		1.83191386		4.06412083		-0.00023488		 0.00045883		-0.00019389
H		-1.91142649		11.28899809		5.70540039		 0.00023488		-0.00045883		 0.00019389
H		-0.52882902		9.84483758		0.82063978		 0.00008729		-0.00005184		 0.00024869
H		6.97125521		3.27607437		8.94888037		-0.00008729		 0.00005184		-0.00024869
