# total energy = -41271.6174022 eV	

CRYSTAL	
PRIMVEC	
		5.69829968		0.00000000		0.00000000	
		0.00000000		12.58180012		0.00000000	
		0.00000000		0.00000000		8.25659691	
PRIMCOORD
   56 1	
Mg		0.00000000		0.00000000		0.00000000		0.00000000		0.00000000		0.00000000	
Mg		0.00000000		6.29089949		0.00000000		0.00000000		0.00000000		0.00000000	
Mg		2.84914984		6.29089949		4.12829960		0.00000000		0.00000000		0.00000000	
Mg		2.84914984		0.00000000		4.12829960		0.00000000		0.00000000		0.00000000	
Mg		0.00000000		3.14545003		8.00972777		0.00000000		0.00000000		 0.00031072	
Mg		0.00000000		9.43634952		0.24687200		0.00000000		-0.00000000		-0.00031072	
Mg		2.84914984		9.43634952		3.88142760		0.00000000		 0.00000001		 0.00031073	
Mg		2.84914984		3.14545003		4.37517273		0.00000000		-0.00000001		-0.00031073	
Mg		1.42457492		1.60543781		2.06414980		-0.00000001		-0.00016625		0.00000000	
Mg		4.27372476		10.97636116		6.19244939		 0.00000001		 0.00016625		-0.00000000	
Mg		4.27372476		4.68546167		2.06414980		0.00000000		 0.00016625		-0.00000002	
Mg		1.42457492		7.89633730		6.19244939		-0.00000000		-0.00016625		 0.00000002	
Mg		4.27372476		7.89633730		6.19244939		0.00000000		-0.00016625		 0.00000002	
Mg		1.42457492		4.68546167		2.06414980		-0.00000000		 0.00016625		-0.00000002	
Mg		1.42457492		10.97636116		6.19244939		-0.00000001		 0.00016625		-0.00000000	
Mg		4.27372476		1.60543781		2.06414980		 0.00000001		-0.00016625		0.00000000	
Si		0.00000000		1.50729999		5.09267072		0.00000000		-0.00024529		-0.00022724	
Si		0.00000000		11.07449956		3.16392904		0.00000000		 0.00024529		 0.00022724	
Si		0.00000000		4.78359950		5.09267072		-0.00000000		 0.00024528		-0.00022724	
Si		0.00000000		7.79819833		3.16392904		-0.00000000		-0.00024528		 0.00022724	
Si		2.84914984		7.79819833		0.96437112		-0.00000000		-0.00024526		-0.00022723	
Si		2.84914984		4.78359950		7.29222864		-0.00000000		 0.00024526		 0.00022723	
Si		2.84914984		11.07449956		0.96437112		0.00000000		 0.00024529		-0.00022724	
Si		2.84914984		1.50729999		7.29222864		0.00000000		-0.00024529		 0.00022724	
O		0.00000000		3.14545003		1.78838002		0.00000000		-0.00000001		 0.00026646	
O		0.00000000		9.43634952		6.46822089		0.00000000		 0.00000001		-0.00026646	
O		2.84914984		9.43634952		5.91667961		0.00000000		0.00000000		 0.00026646	
O		2.84914984		3.14545003		2.33992072		0.00000000		-0.00000000		-0.00026646	
O		0.00000000		3.14545003		5.91502881		-0.00000000		 0.00000006		-0.00055777	
O		0.00000000		9.43634952		2.34157209		-0.00000000		-0.00000006		 0.00055777	
O		2.84914984		9.43634952		1.78672865		-0.00000000		 0.00000006		-0.00055777	
O		2.84914984		3.14545003		6.46987168		-0.00000000		-0.00000006		 0.00055777	
O		0.00000000		12.45598109		2.11203774		-0.00000000		-0.00018156		-0.00076640	
O		0.00000000		0.12581789		6.14456145		-0.00000000		 0.00018156		 0.00076640	
O		0.00000000		6.41671737		2.11203774		0.00000000		 0.00018160		-0.00076637	
O		0.00000000		6.16508160		6.14456145		0.00000000		-0.00018160		 0.00076637	
O		2.84914984		6.16508160		6.24033847		0.00000000		-0.00018157		-0.00076639	
O		2.84914984		6.41671737		2.01626186		0.00000000		 0.00018157		 0.00076639	
O		2.84914984		0.12581789		6.24033847		0.00000000		 0.00018157		-0.00076637	
O		2.84914984		12.45598109		2.01626186		0.00000000		-0.00018157		 0.00076637	
O		1.49010480		1.54126983		8.19467577		-0.00039267		-0.00009685		-0.00007652	
O		4.20819375		11.04052858		0.06192399		 0.00039267		 0.00009685		 0.00007652	
O		4.20819375		4.74962852		8.19467577		 0.00039266		 0.00009686		-0.00007651	
O		1.49010480		7.83216932		0.06192399		-0.00039266		-0.00009686		 0.00007651	
O		4.20819375		7.83216932		0.06192399		 0.00039266		-0.00009686		 0.00007651	
O		1.49010480		4.74962852		8.19467577		-0.00039266		 0.00009686		-0.00007651	
O		1.49010480		11.04052858		0.06192399		-0.00039267		 0.00009685		 0.00007652	
O		4.20819375		1.54126983		8.19467577		 0.00039267		-0.00009685		-0.00007652	
O		4.33925464		7.83216932		4.06637560		-0.00039267		-0.00009685		-0.00007652	
O		1.35904504		4.74962852		4.19022473		 0.00039267		 0.00009685		 0.00007652	
O		1.35904504		11.04052858		4.06637560		 0.00039266		 0.00009687		-0.00007650	
O		4.33925464		1.54126983		4.19022473		-0.00039266		-0.00009687		 0.00007650	
O		1.35904504		1.54126983		4.19022473		 0.00039266		-0.00009687		 0.00007650	
O		4.33925464		11.04052858		4.06637560		-0.00039266		 0.00009687		-0.00007650	
O		4.33925464		4.74962852		4.19022473		-0.00039267		 0.00009685		 0.00007652	
O		1.35904504		7.83216932		4.06637560		 0.00039267		-0.00009685		-0.00007652	
