# total energy = -41274.6195718 eV	

CRYSTAL	
PRIMVEC	
		5.69829968		0.00000000		0.00000000	
		0.00000000		12.00990166		0.00000000	
		0.00000000		0.00000000		8.25659691	
PRIMCOORD
   56 1	
Mg		0.00000000		0.00000000		0.00000000		0.00000000		0.00000000		0.00000000	
Mg		0.00000000		6.00494969		0.00000000		0.00000000		0.00000000		0.00000000	
Mg		2.84914984		6.00494969		4.12829960		0.00000000		0.00000000		0.00000000	
Mg		2.84914984		0.00000000		4.12829960		0.00000000		0.00000000		0.00000000	
Mg		0.00000000		3.00247456		8.00972777		0.00000000		 0.00000001		 0.00070235	
Mg		0.00000000		9.00742425		0.24687200		0.00000000		-0.00000001		-0.00070235	
Mg		2.84914984		9.00742425		3.88142760		0.00000000		0.00000000		 0.00070235	
Mg		2.84914984		3.00247456		4.37517273		0.00000000		-0.00000000		-0.00070235	
Mg		1.42457492		1.53246311		2.06414980		 0.00000001		-0.00026328		-0.00000001	
Mg		4.27372476		10.47743514		6.19244939		-0.00000001		 0.00026328		 0.00000001	
Mg		4.27372476		4.47248601		2.06414980		-0.00000001		 0.00026328		-0.00000001	
Mg		1.42457492		7.53741280		6.19244939		 0.00000001		-0.00026328		 0.00000001	
Mg		4.27372476		7.53741280		6.19244939		-0.00000001		-0.00026328		 0.00000001	
Mg		1.42457492		4.47248601		2.06414980		 0.00000001		 0.00026328		-0.00000001	
Mg		1.42457492		10.47743514		6.19244939		 0.00000001		 0.00026328		 0.00000001	
Mg		4.27372476		1.53246311		2.06414980		-0.00000001		-0.00026328		-0.00000001	
Si		0.00000000		1.43878591		5.09267072		0.00000000		 0.00004846		-0.00015274	
Si		0.00000000		10.57111347		3.16392904		0.00000000		-0.00004846		 0.00015274	
Si		0.00000000		4.56616378		5.09267072		0.00000000		-0.00004847		-0.00015275	
Si		0.00000000		7.44373560		3.16392904		0.00000000		 0.00004847		 0.00015275	
Si		2.84914984		7.44373560		0.96437112		0.00000000		 0.00004842		-0.00015274	
Si		2.84914984		4.56616378		7.29222864		0.00000000		-0.00004842		 0.00015274	
Si		2.84914984		10.57111347		0.96437112		0.00000000		-0.00004845		-0.00015274	
Si		2.84914984		1.43878591		7.29222864		0.00000000		 0.00004845		 0.00015274	
O		0.00000000		3.00247456		1.78838002		0.00000000		-0.00000001		-0.00049706	
O		0.00000000		9.00742425		6.46822089		0.00000000		 0.00000001		 0.00049706	
O		2.84914984		9.00742425		5.91667961		0.00000000		 0.00000002		-0.00049698	
O		2.84914984		3.00247456		2.33992072		0.00000000		-0.00000002		 0.00049698	
O		0.00000000		3.00247456		5.91502881		0.00000000		-0.00000003		-0.00011401	
O		0.00000000		9.00742425		2.34157209		0.00000000		 0.00000003		 0.00011401	
O		2.84914984		9.00742425		1.78672865		0.00000000		-0.00000003		-0.00011395	
O		2.84914984		3.00247456		6.46987168		0.00000000		 0.00000003		 0.00011395	
O		0.00000000		11.88980031		2.11203774		0.00000000		-0.00019397		 0.00046839	
O		0.00000000		0.12009907		6.14456145		0.00000000		 0.00019397		-0.00046839	
O		0.00000000		6.12504877		2.11203774		-0.00000000		 0.00019393		 0.00046840	
O		0.00000000		5.88485062		6.14456145		-0.00000000		-0.00019393		-0.00046840	
O		2.84914984		5.88485062		6.24033847		0.00000000		-0.00019398		 0.00046840	
O		2.84914984		6.12504877		2.01626186		0.00000000		 0.00019398		-0.00046840	
O		2.84914984		0.12009907		6.24033847		0.00000000		 0.00019396		 0.00046840	
O		2.84914984		11.88980031		2.01626186		0.00000000		-0.00019396		-0.00046840	
O		1.49010480		1.47121265		8.19467577		 0.00026164		-0.00059358		 0.00054693	
O		4.20819375		10.53868616		0.06192399		-0.00026164		 0.00059358		-0.00054693	
O		4.20819375		4.53373647		8.19467577		-0.00026164		 0.00059356		 0.00054694	
O		1.49010480		7.47616235		0.06192399		 0.00026164		-0.00059356		-0.00054694	
O		4.20819375		7.47616235		0.06192399		-0.00026164		-0.00059356		-0.00054694	
O		1.49010480		4.53373647		8.19467577		 0.00026164		 0.00059356		 0.00054694	
O		1.49010480		10.53868616		0.06192399		 0.00026164		 0.00059358		-0.00054693	
O		4.20819375		1.47121265		8.19467577		-0.00026164		-0.00059358		 0.00054693	
O		4.33925464		7.47616235		4.06637560		 0.00026163		-0.00059356		 0.00054690	
O		1.35904504		4.53373647		4.19022473		-0.00026163		 0.00059356		-0.00054690	
O		1.35904504		10.53868616		4.06637560		-0.00026165		 0.00059356		 0.00054690	
O		4.33925464		1.47121265		4.19022473		 0.00026165		-0.00059356		-0.00054690	
O		1.35904504		1.47121265		4.19022473		-0.00026165		-0.00059356		-0.00054690	
O		4.33925464		10.53868616		4.06637560		 0.00026165		 0.00059356		 0.00054690	
O		4.33925464		4.53373647		4.19022473		 0.00026163		 0.00059356		-0.00054690	
O		1.35904504		7.47616235		4.06637560		-0.00026163		-0.00059356		 0.00054690	
