# total energy = -41275.3649905 eV	

CRYSTAL	
PRIMVEC	
		5.69829968		0.00000000		0.00000000	
		0.00000000		11.72394959		0.00000000	
		0.00000000		0.00000000		8.25659691	
PRIMCOORD
   56 1	
Mg		0.00000000		0.00000000		0.00000000		0.00000000		0.00000000		0.00000000	
Mg		0.00000000		5.86197479		0.00000000		0.00000000		0.00000000		0.00000000	
Mg		2.84914984		5.86197479		4.12829960		0.00000000		0.00000000		0.00000000	
Mg		2.84914984		0.00000000		4.12829960		0.00000000		0.00000000		0.00000000	
Mg		0.00000000		2.93098711		8.00972777		0.00000000		-0.00000001		 0.00022568	
Mg		0.00000000		8.79296134		0.24687200		0.00000000		 0.00000001		-0.00022568	
Mg		2.84914984		8.79296134		3.88142760		-0.00000000		-0.00000000		 0.00022568	
Mg		2.84914984		2.93098711		4.37517273		-0.00000000		0.00000000		-0.00022568	
Mg		1.42457492		1.49597576		2.06414980		 0.00000001		-0.00062911		-0.00000002	
Mg		4.27372476		10.22797326		6.19244939		-0.00000001		 0.00062911		 0.00000002	
Mg		4.27372476		4.36599904		2.06414980		0.00000000		 0.00062908		-0.00000001	
Mg		1.42457492		7.35795055		6.19244939		-0.00000000		-0.00062908		 0.00000001	
Mg		4.27372476		7.35795055		6.19244939		0.00000000		-0.00062908		 0.00000001	
Mg		1.42457492		4.36599904		2.06414980		-0.00000000		 0.00062908		-0.00000001	
Mg		1.42457492		10.22797326		6.19244939		 0.00000001		 0.00062911		 0.00000002	
Mg		4.27372476		1.49597576		2.06414980		-0.00000001		-0.00062911		-0.00000002	
Si		0.00000000		1.40452887		5.09267072		0.00000000		-0.00001471		-0.00013379	
Si		0.00000000		10.31942015		3.16392904		0.00000000		 0.00001471		 0.00013379	
Si		0.00000000		4.45744592		5.09267072		0.00000000		 0.00001472		-0.00013380	
Si		0.00000000		7.26650367		3.16392904		0.00000000		-0.00001472		 0.00013380	
Si		2.84914984		7.26650367		0.96437112		0.00000000		-0.00001471		-0.00013383	
Si		2.84914984		4.45744592		7.29222864		0.00000000		 0.00001471		 0.00013383	
Si		2.84914984		10.31942015		0.96437112		0.00000000		 0.00001471		-0.00013384	
Si		2.84914984		1.40452887		7.29222864		0.00000000		-0.00001471		 0.00013384	
O		0.00000000		2.93098711		1.78838002		0.00000000		 0.00000002		 0.00005766	
O		0.00000000		8.79296134		6.46822089		0.00000000		-0.00000002		-0.00005766	
O		2.84914984		8.79296134		5.91667961		0.00000000		-0.00000001		 0.00005765	
O		2.84914984		2.93098711		2.33992072		0.00000000		 0.00000001		-0.00005765	
O		0.00000000		2.93098711		5.91502881		0.00000000		 0.00000002		 0.00013139	
O		0.00000000		8.79296134		2.34157209		0.00000000		-0.00000002		-0.00013139	
O		2.84914984		8.79296134		1.78672865		0.00000000		 0.00000002		 0.00013145	
O		2.84914984		2.93098711		6.46987168		0.00000000		-0.00000002		-0.00013145	
O		0.00000000		11.60670935		2.11203774		0.00000000		 0.00010579		 0.00028923	
O		0.00000000		0.11723910		6.14456145		0.00000000		-0.00010579		-0.00028923	
O		0.00000000		5.97921389		2.11203774		0.00000000		-0.00010577		 0.00028922	
O		0.00000000		5.74473456		6.14456145		0.00000000		 0.00010577		-0.00028922	
O		2.84914984		5.74473456		6.24033847		0.00000000		 0.00010579		 0.00028920	
O		2.84914984		5.97921389		2.01626186		0.00000000		-0.00010579		-0.00028920	
O		2.84914984		0.11723910		6.24033847		0.00000000		-0.00010579		 0.00028919	
O		2.84914984		11.60670935		2.01626186		0.00000000		 0.00010579		-0.00028919	
O		1.49010480		1.43618407		8.19467577		 0.00001799		-0.00011477		 0.00038776	
O		4.20819375		10.28776552		0.06192399		-0.00001799		 0.00011477		-0.00038776	
O		4.20819375		4.42579073		8.19467577		-0.00001799		 0.00011477		 0.00038777	
O		1.49010480		7.29815886		0.06192399		 0.00001799		-0.00011477		-0.00038777	
O		4.20819375		7.29815886		0.06192399		-0.00001799		-0.00011477		-0.00038777	
O		1.49010480		4.42579073		8.19467577		 0.00001799		 0.00011477		 0.00038777	
O		1.49010480		10.28776552		0.06192399		 0.00001799		 0.00011477		-0.00038776	
O		4.20819375		1.43618407		8.19467577		-0.00001799		-0.00011477		 0.00038776	
O		4.33925464		7.29815886		4.06637560		 0.00001794		-0.00011475		 0.00038778	
O		1.35904504		4.42579073		4.19022473		-0.00001794		 0.00011475		-0.00038778	
O		1.35904504		10.28776552		4.06637560		-0.00001796		 0.00011477		 0.00038779	
O		4.33925464		1.43618407		4.19022473		 0.00001796		-0.00011477		-0.00038779	
O		1.35904504		1.43618407		4.19022473		-0.00001796		-0.00011477		-0.00038779	
O		4.33925464		10.28776552		4.06637560		 0.00001796		 0.00011477		 0.00038779	
O		4.33925464		4.42579073		4.19022473		 0.00001794		 0.00011475		-0.00038778	
O		1.35904504		7.29815886		4.06637560		-0.00001794		-0.00011475		 0.00038778	
