# total energy = -8761.95381041 eV

CRYSTAL
PRIMVEC
		3.04799982		0.00000000		0.00000000
		-1.52399991		2.63964709		0.00000000
		0.00000000		0.00000000		13.28915118
PRIMECORD
   11 1
H		0.00000000		1.75976391		6.24191348		0.00000000		0.00000000		-0.00084578
H		1.52399991		0.87988196		7.04723648		0.00000000		-0.00000000		 0.00084578
Mg		0.00000000		0.00000000		9.28512946		0.00000000		-0.00000000		-0.00091111
Mg		0.00000000		0.00000000		4.00402081		0.00000000		0.00000000		 0.00091111
Mg		1.52399991		0.87988196		11.96156317		0.00000000		0.00000000		 0.00029230
Mg		0.00000000		1.75976391		1.32758589		0.00000000		-0.00000000		-0.00029230
O		1.52399991		0.87988196		2.65517177		0.00000000		0.00000000		 0.00023195
O		0.00000000		1.75976391		10.63397728		0.00000000		-0.00000000		-0.00023195
O		0.00000000		1.75976391		5.17745258		0.00000000		-0.00000000		-0.00021642
O		1.52399991		0.87988196		8.11169647		0.00000000		0.00000000		 0.00021642
O		0.00000000		0.00000000		0.00000000		-0.00000000		-0.00000000		0.00000000
