# total energy = -8761.86925667 eV

CRYSTAL
PRIMVEC
		3.04799982		0.00000000		0.00000000
		-1.52399991		2.63964709		0.00000000
		0.00000000		0.00000000		11.12579979
PRIMECORD
   11 1
H		0.00000000		1.75976391		5.22578868		0.00000000		-0.00000000		-0.00009423
H		1.52399991		0.87988196		5.90001172		0.00000000		0.00000000		 0.00009423
Mg		0.00000000		0.00000000		7.77359648		0.00000000		0.00000000		 0.00035721
Mg		0.00000000		0.00000000		3.35220391		0.00000000		-0.00000000		-0.00035721
Mg		1.52399991		0.87988196		10.01433233		0.00000000		0.00000000		-0.00012991
Mg		0.00000000		1.75976391		1.11146807		-0.00000000		-0.00000000		 0.00012991
O		1.52399991		0.87988196		2.22293492		0.00000000		0.00000000		-0.00010598
O		0.00000000		1.75976391		8.90286456		0.00000000		-0.00000000		 0.00010598
O		0.00000000		1.75976391		4.33461175		0.00000000		-0.00000000		 0.00040981
O		1.52399991		0.87988196		6.79118774		0.00000000		0.00000000		-0.00040981
O		0.00000000		0.00000000		0.00000000		0.00000000		0.00000000		0.00000000
