# total energy = -10314.2195349 eV	

CRYSTAL	
PRIMVEC	
		3.50148834		0.00000000		0.00000000	
		0.00000000		3.50148834		0.00000000	
		0.00000000		0.00000000		10.71842409	
PRIMCOORD
   14 1	
Si		0.00000000		0.00000000		0.00000000		-0.00000000		-0.00000000		-0.00000003	
Si		1.75074452		1.75074452		5.35921275		0.00000000		 0.00000001		-0.00000005	
Mg		0.00000000		0.00000000		3.74990894		-0.00000000		0.00000000		-0.00057876	
Mg		0.00000000		0.00000000		6.96851479		-0.00000000		 0.00000001		 0.00058008	
Mg		1.75074417		1.75074487		9.10837266		-0.00000002		 0.00000001		 0.00003719	
Mg		1.75074452		1.75074452		1.61005073		-0.00000001		-0.00000000		-0.00003918	
O		0.00000000		1.75074452		0.00000000		-0.00000001		0.00000000		 0.00000029	
O		1.75074452		0.00000000		0.00000000		-0.00000002		-0.00000000		 0.00000028	
O		1.75074452		0.00000000		5.35921275		 0.00000005		 0.00000001		-0.00000030	
O		0.00000000		1.75074417		5.35921240		 0.00000001		0.00000000		-0.00000028	
O		0.00000000		0.00000000		1.79086487		0.00000000		-0.00000001		-0.00006508	
O		0.00000000		0.00000000		8.92755781		-0.00000000		-0.00000001		 0.00006494	
O		1.75074452		1.75074452		7.14972030		 0.00000001		0.00000000		-0.00011809	
O		1.75074487		1.75074452		3.56870414		0.00000000		-0.00000002		 0.00011899	
