# total energy = -10314.1244604 eV	

CRYSTAL	
PRIMVEC	
		3.43263267		0.00000000		0.00000000	
		0.00000000		3.43263267		0.00000000	
		0.00000000		0.00000000		10.59031259	
PRIMCOORD
   14 1	
Si		0.00000000		0.00000000		0.00000000		-0.00000000		-0.00000001		 0.00000011	
Si		1.71631563		1.71631563		5.29515665		-0.00000000		 0.00000001		-0.00000006	
Mg		0.00000000		0.00000000		3.70729333		-0.00000000		-0.00000001		 0.00006750	
Mg		0.00000000		0.00000000		6.88301856		-0.00000001		 0.00000001		-0.00006755	
Mg		1.71631563		1.71631598		9.00202843		-0.00000001		 0.00000001		 0.00013015	
Mg		1.71631563		1.71631563		1.58828346		-0.00000001		-0.00000001		-0.00013010	
O		0.00000000		1.71631598		0.00000000		 0.00000004		 0.00000001		 0.00000018	
O		1.71631563		0.00000000		0.00000000		-0.00000001		-0.00000000		 0.00000017	
O		1.71631563		0.00000000		5.29515665		 0.00000002		 0.00000001		-0.00000015	
O		0.00000000		1.71631563		5.29515665		 0.00000001		0.00000000		-0.00000017	
O		0.00000000		0.00000000		1.77865148		-0.00000001		-0.00000002		 0.00000489	
O		0.00000000		0.00000000		8.81165936		-0.00000000		-0.00000000		-0.00000492	
O		1.71631563		1.71631563		7.07366878		-0.00000001		 0.00000001		-0.00010298	
O		1.71631563		1.71631598		3.51664346		 0.00000001		-0.00000001		 0.00010290	
