# total energy = -10314.0878892 eV	

CRYSTAL	
PRIMVEC	
		3.54607938		0.00000000		0.00000000	
		0.00000000		3.54607938		0.00000000	
		0.00000000		0.00000000		10.78246755	
PRIMCOORD
   14 1	
Si		0.00000000		0.00000000		0.00000000		-0.00000000		0.00000000		-0.00000002	
Si		1.77304039		1.77304039		5.39123377		-0.00000000		 0.00000001		 0.00000004	
Mg		0.00000000		0.00000000		3.77241156		-0.00000001		 0.00000001		-0.00057404	
Mg		0.00000000		0.00000000		7.01005494		0.00000000		 0.00000002		 0.00057395	
Mg		1.77304004		1.77304074		9.16267797		-0.00000002		 0.00000002		 0.00008243	
Mg		1.77304039		1.77304039		1.61978817		-0.00000002		0.00000000		-0.00008232	
O		0.00000000		1.77304039		0.00000000		 0.00000002		-0.00000001		 0.00000014	
O		1.77304039		0.00000000		0.00000000		-0.00000001		 0.00000001		 0.00000014	
O		1.77304004		0.00000000		5.39123377		 0.00000002		-0.00000001		-0.00000013	
O		0.00000000		1.77304004		5.39123377		 0.00000003		 0.00000003		-0.00000011	
O		0.00000000		0.00000000		1.79608565		-0.00000000		-0.00000000		-0.00028228	
O		0.00000000		0.00000000		8.98637980		 0.00000003		-0.00000002		 0.00028244	
O		1.77304039		1.77304039		7.18681609		-0.00000002		-0.00000002		-0.00029415	
O		1.77304039		1.77304039		3.59565111		-0.00000002		-0.00000003		 0.00029390	
