# total energy = -20624.2827979 eV	

CRYSTAL	
PRIMVEC	
		10.11000334		0.00000000		-1.61760504	
		0.00000000		5.76999823		0.00000000	
		-0.75200394		0.00000000		4.70000416	
PRIMCOORD
   28 1	
Si		7.85446863		2.88500014		2.75142135		 0.00059092		0.00000000		-0.00026919	
Si		1.50352974		2.88500014		0.33097880		-0.00059092		0.00000000		 0.00026919	
Si		2.59792134		0.00000000		3.62544164		 0.00001608		0.00000000		 0.00060772	
Si		6.76007805		0.00000000		-0.54304149		-0.00001608		0.00000000		-0.00060772	
Mg		5.05499962		2.88500014		-0.80880047		0.00000000		0.00000000		0.00000000	
Mg		-0.37599992		0.00000000		2.35000003		0.00000000		0.00000000		0.00000000	
Mg		-0.37599992		2.88500014		2.35000003		0.00000000		0.00000000		0.00000000	
Mg		4.67899970		0.00000000		1.54119956		0.00000000		0.00000000		0.00000000	
Mg		2.13405384		1.45807860		1.94381163		 0.00086817		-0.00034745		-0.00051227	
Mg		7.22394555		4.31192066		1.13858750		-0.00086817		 0.00034745		 0.00051227	
Mg		7.22394555		1.45807860		1.13858750		-0.00086817		-0.00034745		 0.00051227	
Mg		2.13405384		4.31192066		1.94381163		 0.00086817		 0.00034745		-0.00051227	
O		3.03039835		2.88500014		0.47915884		 0.00024666		0.00000000		-0.00050819	
O		6.32760207		2.88500014		2.60324131		-0.00024666		0.00000000		 0.00050819	
O		1.07673618		2.88500014		3.38018032		 0.00002449		0.00000000		 0.00017498	
O		8.28126322		2.88500014		-0.29778017		-0.00002449		0.00000000		-0.00017498	
O		8.22083813		0.00000000		-0.24643671		-0.00075884		-0.00000000		 0.00014061	
O		1.13716228		0.00000000		3.32883686		 0.00075884		-0.00000000		-0.00014061	
O		3.19299330		0.00000000		0.54656869		 0.00002663		-0.00000000		-0.00005873	
O		6.16500712		0.00000000		2.53583044		-0.00002663		-0.00000000		 0.00005873	
O		0.68837930		1.50077659		0.93723232		 0.00010677		-0.00063944		 0.00018579	
O		8.66962112		4.26922267		2.14516783		-0.00010677		 0.00063944		-0.00018579	
O		8.66962112		1.50077659		2.14516783		-0.00010677		-0.00063944		-0.00018579	
O		0.68837930		4.26922267		0.93723232		 0.00010677		 0.00063944		 0.00018579	
O		5.83106015		1.31613693		0.07914020		 0.00004340		 0.00010942		-0.00063910	
O		3.52694026		4.45386232		3.00325995		-0.00004340		-0.00010942		 0.00063910	
O		3.52694026		1.31613693		3.00325995		-0.00004340		 0.00010942		 0.00063910	
O		5.83106015		4.45386232		0.07914020		 0.00004340		-0.00010942		-0.00063910	
