# total energy = -20632.2965345 eV	

CRYSTAL	
PRIMVEC	
		10.10999695		0.00000000		0.80879773	
		0.00000000		5.76999514		0.00000000	
		0.37599535		0.00000000		4.70000276	
PRIMCOORD
   28 1	
Si		8.84169521		2.88499960		4.79444887		-0.00052869		-0.00000000		 0.00045137	
Si		1.64430520		2.88499960		0.71434959		 0.00052869		-0.00000000		-0.00045137	
Si		3.59326786		0.00000000		4.40819864		 0.00016245		0.00000000		 0.00013254	
Si		6.89273053		0.00000000		1.10060083		-0.00016245		0.00000000		-0.00013254	
Mg		5.05499949		2.88499960		0.40439988		0.00000000		0.00000000		0.00000000	
Mg		0.18799970		0.00000000		2.35000036		0.00000000		0.00000000		0.00000000	
Mg		0.18799970		2.88499960		2.35000036		0.00000000		0.00000000		0.00000000	
Mg		5.24300021		0.00000000		2.75440024		0.00000000		0.00000000		0.00000000	
Mg		2.69692585		1.45807939		2.54604393		-0.00049309		 0.00051717		 0.00003933	
Mg		7.78907355		4.31192082		2.96275554		 0.00049309		-0.00051717		-0.00003933	
Mg		7.78907355		1.45807939		2.96275554		 0.00049309		 0.00051717		-0.00003933	
Mg		2.69692585		4.31192082		2.54604393		-0.00049309		-0.00051717		 0.00003933	
O		3.26784202		2.88499960		1.24444502		 0.00003470		0.00000000		-0.00045871	
O		7.21815738		2.88499960		4.26435344		-0.00003470		0.00000000		 0.00045871	
O		1.95172542		2.88499960		3.77859507		-0.00009440		-0.00000000		 0.00036595	
O		8.53427398		2.88499960		1.73020541		 0.00009440		-0.00000000		-0.00036595	
O		8.48411321		0.00000000		1.76868834		-0.00028803		0.00000000		-0.00001209	
O		2.00188619		0.00000000		3.74011214		 0.00028803		0.00000000		 0.00001209	
O		3.45344814		0.00000000		1.35455997		 0.00039752		0.00000000		 0.00031578	
O		7.03255126		0.00000000		4.15423848		-0.00039752		0.00000000		-0.00031578	
O		0.94635166		1.50077746		1.14371879		-0.00020130		-0.00006887		 0.00008339	
O		9.53964774		4.26922275		4.36508068		 0.00020130		 0.00006887		-0.00008339	
O		9.53964774		1.50077746		4.36508068		 0.00020130		-0.00006887		-0.00008339	
O		0.94635166		4.26922275		1.14371879		-0.00020130		 0.00006887		 0.00008339	
O		6.08034750		1.31613688		1.51847983		-0.00020007		 0.00074776		 0.00016297	
O		4.40565191		4.45386333		3.99031964		 0.00020007		-0.00074776		-0.00016297	
O		4.40565191		1.31613688		3.99031964		 0.00020007		 0.00074776		-0.00016297	
O		6.08034750		4.45386333		1.51847983		-0.00020007		-0.00074776		 0.00016297	
