# total energy = -20630.4151235 eV	

CRYSTAL	
PRIMVEC	
		10.11000123		0.00000000		1.21319770	
		0.00000000		5.77000270		0.00000000	
		0.56400023		0.00000000		4.70000193	
PRIMCOORD
   28 1	
Si		9.00623214		2.88500033		5.13495385		 0.00020230		0.00000000		-0.00057443	
Si		1.66776729		2.88500033		0.77824578		-0.00020230		0.00000000		 0.00057443	
Si		3.75915945		0.00000000		4.53865768		-0.00036720		0.00000000		 0.00003365	
Si		6.91483998		0.00000000		1.37454195		 0.00036720		0.00000000		-0.00003365	
Mg		5.05499960		2.88500033		0.60659987		0.00000000		0.00000000		0.00000000	
Mg		0.28200012		0.00000000		2.34999995		0.00000000		0.00000000		0.00000000	
Mg		0.28200012		2.88500033		2.34999995		0.00000000		0.00000000		0.00000000	
Mg		5.33699971		0.00000000		2.95659982		0.00000000		0.00000000		0.00000000	
Mg		2.79073758		1.45807944		2.64641547		 0.00062279		 0.00004210		 0.00000634	
Mg		7.88326184		4.31192122		3.26678416		-0.00062279		-0.00004210		-0.00000634	
Mg		7.88326184		1.45807944		3.26678416		-0.00062279		 0.00004210		-0.00000634	
Mg		2.79073758		4.31192122		2.64641547		 0.00062279		-0.00004210		 0.00000634	
O		3.30741552		2.88500033		1.37199326		-0.00005567		0.00000000		-0.00036495	
O		7.36658391		2.88500033		4.54120637		 0.00005567		0.00000000		 0.00036495	
O		2.09755667		2.88500033		3.84499717		 0.00087473		0.00000000		 0.00009348	
O		8.57644276		2.88500033		2.06820246		-0.00087473		0.00000000		-0.00009348	
O		8.52799122		0.00000000		2.10454290		-0.00005895		-0.00000000		 0.00028734	
O		2.14600719		0.00000000		3.80865673		 0.00005895		-0.00000000		-0.00028734	
O		3.49685744		0.00000000		1.48922577		-0.00030680		-0.00000000		 0.00000854	
O		7.17714198		0.00000000		4.42397387		 0.00030680		-0.00000000		-0.00000854	
O		0.98934799		1.50077683		1.17813314		-0.00001431		-0.00029290		 0.00015335	
O		9.68465144		4.26922281		4.73506650		 0.00001431		 0.00029290		-0.00015335	
O		9.68465144		1.50077683		4.73506650		 0.00001431		-0.00029290		-0.00015335	
O		0.98934799		4.26922281		1.17813314		-0.00001431		 0.00029290		 0.00015335	
O		6.12189571		1.31613699		1.75837044		 0.00030032		 0.00005561		-0.00010030	
O		4.55210372		4.45386265		4.15482920		-0.00030032		-0.00005561		 0.00010030	
O		4.55210372		1.31613699		4.15482920		-0.00030032		 0.00005561		 0.00010030	
O		6.12189571		4.45386265		1.75837044		 0.00030032		-0.00005561		-0.00010030	
