# total energy = -20628.6741284 eV	

CRYSTAL	
PRIMVEC	
		10.11000334		0.00000000		1.61760504	
		0.00000000		5.76999823		0.00000000	
		0.75200394		0.00000000		4.70000416	
PRIMCOORD
   28 1	
Si		9.17076938		2.88500014		5.47545857		 0.00033031		0.00000000		-0.00022354	
Si		1.69122869		2.88500014		0.84214142		-0.00033031		0.00000000		 0.00022354	
Si		3.92505042		0.00000000		4.66911639		-0.00001004		0.00000000		 0.00022124	
Si		6.93694867		0.00000000		1.64848155		 0.00001004		0.00000000		-0.00022124	
Mg		5.05499962		2.88500014		0.80880047		0.00000000		0.00000000		0.00000000	
Mg		0.37599992		0.00000000		2.35000003		0.00000000		0.00000000		0.00000000	
Mg		0.37599992		2.88500014		2.35000003		0.00000000		0.00000000		0.00000000	
Mg		5.43099955		0.00000000		3.15879948		0.00000000		0.00000000		0.00000000	
Mg		2.88454964		1.45807860		2.74678839		-0.00007908		 0.00015745		 0.00009303	
Mg		7.97744945		4.31192066		3.57081057		 0.00007908		-0.00015745		-0.00009303	
Mg		7.97744945		1.45807860		3.57081057		 0.00007908		 0.00015745		-0.00009303	
Mg		2.88454964		4.31192066		2.74678839		-0.00007908		-0.00015745		 0.00009303	
O		3.34698988		2.88500014		1.49954079		 0.00017652		0.00000000		 0.00012573	
O		7.51500921		2.88500014		4.81805920		-0.00017652		0.00000000		-0.00012573	
O		2.24338765		2.88500014		3.91140034		-0.00012372		0.00000000		 0.00005593	
O		8.61861042		2.88500014		2.40619965		 0.00012372		0.00000000		-0.00005593	
O		8.57187126		0.00000000		2.44039654		-0.00024230		0.00000000		 0.00036320	
O		2.29012783		0.00000000		3.87720242		 0.00024230		0.00000000		-0.00036320	
O		3.54026681		0.00000000		1.62389051		-0.00010369		0.00000000		-0.00020506	
O		7.32173228		0.00000000		4.69370846		 0.00010369		0.00000000		 0.00020506	
O		1.03234267		1.50077659		1.21254800		-0.00010080		-0.00004711		-0.00001088	
O		9.82965539		4.26922267		5.10505199		 0.00010080		 0.00004711		 0.00001088	
O		9.82965539		1.50077659		5.10505199		 0.00010080		-0.00004711		 0.00001088	
O		1.03234267		4.26922267		1.21254800		-0.00010080		 0.00004711		-0.00001088	
O		6.16344369		1.31613693		1.99825943		-0.00004460		-0.00003196		 0.00016338	
O		4.69855540		4.45386232		4.31933852		 0.00004460		 0.00003196		-0.00016338	
O		4.69855540		1.31613693		4.31933852		 0.00004460		-0.00003196		-0.00016338	
O		6.16344369		4.45386232		1.99825943		-0.00004460		 0.00003196		 0.00016338	
