# total energy = -20633.5721807 eV	

CRYSTAL	
PRIMVEC	
		10.11000015		0.00000000		0.40439960	
		0.00000000		5.76999957		0.00000000	
		0.18800413		0.00000000		4.70000202	
PRIMCOORD
   28 1	
Si		8.67715695		2.88499979		4.45394538		-0.00059586		0.00000000		-0.00013044	
Si		1.62084226		2.88499979		0.65045523		 0.00059586		0.00000000		 0.00013044	
Si		3.42737667		0.00000000		4.27773894		-0.00036670		0.00000000		 0.00015117	
Si		6.87062153		0.00000000		0.82666066		 0.00036670		0.00000000		-0.00015117	
Mg		5.05500007		2.88499979		0.20219980		0.00000000		0.00000000		0.00000000	
Mg		0.09400004		0.00000000		2.35000000		0.00000000		0.00000000		0.00000000	
Mg		0.09400004		2.88499979		2.35000000		0.00000000		0.00000000		0.00000000	
Mg		5.14900011		0.00000000		2.55219980		0.00000000		0.00000000		0.00000000	
Mg		2.60311400		1.45807871		2.44567155		-0.00038343		 0.00006010		-0.00008514	
Mg		7.69488623		4.31192087		2.65872805		 0.00038343		-0.00006010		 0.00008514	
Mg		7.69488623		1.45807871		2.65872805		 0.00038343		 0.00006010		 0.00008514	
Mg		2.60311400		4.31192087		2.44567155		-0.00038343		-0.00006010		-0.00008514	
O		3.22826795		2.88499979		1.11689791		 0.00027513		-0.00000000		-0.00000163	
O		7.06973228		2.88499979		3.98750169		-0.00027513		-0.00000000		 0.00000163	
O		1.80589292		2.88499979		3.71219164		 0.00004200		0.00000000		 0.00014997	
O		8.49210528		2.88499979		1.39220795		-0.00004200		0.00000000		-0.00014997	
O		8.44023391		0.00000000		1.43283409		 0.00028560		-0.00000000		 0.00032137	
O		1.85776632		0.00000000		3.67156551		-0.00028560		-0.00000000		-0.00032137	
O		3.41003933		0.00000000		1.21989495		 0.00040848		-0.00000000		 0.00017737	
O		6.88796090		0.00000000		3.88450465		-0.00040848		-0.00000000		-0.00017737	
O		0.90335675		1.50077702		1.10930429		-0.00005806		-0.00018388		 0.00034429	
O		9.39464247		4.26922255		3.99509531		 0.00005806		 0.00018388		-0.00034429	
O		9.39464247		1.50077702		3.99509531		 0.00005806		-0.00018388		-0.00034429	
O		0.90335675		4.26922255		1.10930429		-0.00005806		 0.00018388		 0.00034429	
O		6.03879964		1.31613716		1.27858996		 0.00047056		 0.00064134		-0.00011609	
O		4.25919957		4.45386241		3.82580964		-0.00047056		-0.00064134		 0.00011609	
O		4.25919957		1.31613716		3.82580964		-0.00047056		 0.00064134		 0.00011609	
O		6.03879964		4.45386241		1.27858996		 0.00047056		-0.00064134		-0.00011609	
