# total energy = -49446.9471213 eV

CRYSTAL
PRIMVEC
		14.02399962		0.00000000		0.00000000
		0.00000000		5.10899916		0.20435772
		0.00000000		0.34932381		8.73299700
PRIMECORD
   70 1
Mg		2.42755433		1.67709365		0.11329569		-0.00017849		-0.00007402		-0.00026899
Mg		11.59644529		3.43560924		0.18363446		-0.00033935		-0.00009600		 0.00006638
Mg		9.43955414		1.05577017		4.44795550		 0.00033935		-0.00009600		 0.00006638
Mg		4.58444548		4.40625233		4.58197445		 0.00017849		-0.00007402		-0.00026899
Mg		2.48925993		4.33130247		1.70082647		-0.00020102		 0.00004579		-0.00030269
Mg		11.53473969		0.90009956		1.56357639		 0.00039000		 0.00014807		 0.00001531
Mg		9.50125974		3.62925824		6.03225655		-0.00039000		 0.00014807		 0.00001531
Mg		4.52273988		1.95146339		5.96514470		 0.00020102		 0.00004579		-0.00030269
Mg		4.54377588		1.88147522		2.90196801		 0.00062885		 0.00000780		-0.00019185
Mg		9.48022374		3.45402556		2.96486986		-0.00007596		-0.00015875		-0.00050128
Mg		11.55577569		1.07418508		7.22918949		 0.00007596		-0.00015875		-0.00050128
Mg		2.46822393		4.61063389		7.37064817		-0.00062885		 0.00000780		-0.00019185
Mg		0.00000000		2.84394652		7.33834389		-0.00017006		 0.00021466		-0.00001713
Mg		7.01199981		0.11478644		2.86966373		 0.00017006		 0.00021466		-0.00001713
Mg		0.00000000		2.61982337		1.73525118		-0.00024646		-0.00022792		 0.00026930
Mg		7.01199981		0.23998289		5.99957082		 0.00024646		-0.00022792		 0.00026930
Mg		0.00000000		0.23142544		5.78561226		 0.00018465		 0.00006057		 0.00004408
Mg		7.01199981		2.61126452		1.52129263		-0.00018465		 0.00006057		 0.00004408
Mg		0.00000000		0.12069054		3.01725090		 0.00045040		-0.00037828		-0.00016371
Mg		7.01199981		2.84985062		7.48593106		-0.00045040		-0.00037828		-0.00016371
Si		0.00000000		0.00268980		0.06724368		-0.00028346		 0.00032835		-0.00010510
Si		7.01199981		2.73184988		4.53592384		 0.00028346		 0.00032835		-0.00010510
Si		5.28143826		0.07381813		0.04741935		-0.00026783		 0.00000127		-0.00022978
Si		8.74256136		5.03874453		0.24601742		 0.00000031		 0.00027272		 0.00008083
Si		12.29343807		2.65890545		4.51033705		-0.00000031		 0.00027272		 0.00008083
Si		1.73056155		2.80297961		4.51609951		 0.00026783		 0.00000127		-0.00022978
O		5.82416704		3.96834453		8.82195824		-0.00038112		-0.00000365		-0.00059434
O		8.19983258		1.83482438		8.73661799		-0.00027784		-0.00005276		-0.00039340
O		12.83616825		4.21466486		4.47229836		 0.00027784		-0.00005276		-0.00039340
O		1.18783277		1.23918445		4.35327948		 0.00038112		-0.00000365		-0.00059434
O		1.09807917		3.54279467		0.18530752		 0.00007134		-0.00019413		-0.00004901
O		12.92592045		1.56969927		0.10638326		-0.00016544		-0.00017301		 0.00001098
O		8.11007898		4.29885935		4.57506342		 0.00016544		-0.00017301		 0.00001098
O		5.91392064		1.16295419		4.44962716		-0.00007134		-0.00019413		-0.00004901
O		3.49898791		0.23294845		3.01825361		 0.00022282		-0.00041320		 0.00044327
O		10.52501171		5.11715131		3.21362195		-0.00035777		 0.00082817		 0.00009745
O		10.51098912		2.73731223		7.47794159		 0.00035777		 0.00082817		 0.00009745
O		3.51301190		2.96210853		7.48693378		-0.00022282		-0.00041320		 0.00044327
O		3.57892470		2.67239794		1.51937835		-0.00023168		-0.00022211		 0.00069354
O		10.44507492		2.54978191		1.51447416		 0.00002856		 0.00009575		 0.00049095
O		10.59092451		5.27894199		5.98315432		-0.00002856		 0.00009575		 0.00049095
O		3.43307511		0.29255746		5.78369799		 0.00023168		-0.00022211		 0.00069354
O		1.06582397		0.78917674		1.36644944		-0.00033825		 0.00007168		-0.00045933
O		12.95817705		4.42678487		1.51195404		 0.00013850		 0.00015876		-0.00038020
O		8.07782378		2.04694439		5.77627368		-0.00013850		 0.00015876		-0.00038020
O		5.94617584		3.51833682		5.83512960		 0.00033825		 0.00007168		-0.00045933
O		6.02751504		3.43194197		3.29269347		-0.00017301		 0.00002613		 0.00004142
O		7.99648318		1.92989588		3.23261185		 0.00052516		-0.00045467		 0.00045473
O		13.03951625		4.65905596		7.70129061		-0.00052516		-0.00045467		 0.00045473
O		0.98448477		1.05210149		7.55701310		 0.00017301		 0.00002613		 0.00004142
O		5.81294784		0.83753289		1.42767401		 0.00006521		-0.00026047		-0.00017605
O		8.21105178		4.38317864		1.56950012		-0.00011131		 0.00011599		-0.00006878
O		12.82494765		2.00333956		5.83381976		 0.00011131		 0.00011599		-0.00006878
O		1.19905197		3.56669297		5.89635418		-0.00006521		-0.00026047		-0.00017605
O		1.24673357		3.62119444		3.17819733		-0.00014183		 0.00013438		 0.00003951
O		12.77726605		1.73086307		3.10258413		 0.00005228		-0.00005590		 0.00012600
O		8.25873338		4.46002455		7.57126429		-0.00005228		-0.00005590		 0.00012600
O		5.76526624		1.24135256		7.44251696		 0.00014183		 0.00013438		 0.00003951
O		3.64343510		0.02696815		0.06211229		-0.00002315		 0.00035475		 0.00057466
O		10.38056592		5.08692118		0.26450946		-0.00018316		 0.00040637		-0.00060238
O		10.65543491		2.70708210		4.52883050		 0.00018316		 0.00040637		-0.00060238
O		3.36856471		2.75612823		4.53079246		 0.00002315		 0.00035475		 0.00057466
H		4.20719989		3.10033188		0.99591574		-0.00015807		-0.00007235		 0.00029128
H		9.81679973		2.07853204		0.95504419		 0.00001978		 0.00018072		 0.00027773
H		11.21919970		4.80769212		5.42372435		-0.00001978		 0.00018072		 0.00027773
H		2.80479992		0.72049139		5.26023537		 0.00015807		-0.00007235		 0.00029128
H		3.78647990		1.07681458		3.96663500		 0.00043839		-0.00050497		 0.00010220
H		10.23751972		4.34657320		4.09742422		 0.00027955		-0.00010972		 0.00038437
H		10.79847971		1.96673412		8.36174526		-0.00027955		-0.00010972		 0.00038437
H		3.22551991		3.80597326		8.43531517		-0.00043839		-0.00050497		 0.00010220
