# total energy = -49446.9471247 eV

CRYSTAL
PRIMVEC
		14.02399962		0.00000000		0.00000000
		0.00000000		5.10899916		-0.20435772
		0.00000000		-0.34932381		8.73299700
PRIMECORD
   70 1
Mg		2.42755433		1.67338991		-0.02072467		 0.00033939		 0.00009565		 0.00006632
Mg		11.59644529		3.43190831		-0.09106484		 0.00017869		 0.00007460		-0.00026851
Mg		9.43955414		0.70274823		4.37761392		-0.00017869		 0.00007460		-0.00026851
Mg		4.58444548		4.05323039		4.24359497		-0.00033939		 0.00009565		 0.00006632
Mg		2.48925993		4.20890100		1.35921726		-0.00038992		-0.00014805		 0.00001505
Mg		11.53473969		0.77769669		1.49646594		 0.00020092		-0.00004588		-0.00030289
Mg		9.50125974		3.15753717		5.76078417		-0.00020092		-0.00004588		-0.00030289
Mg		4.52273988		1.47974092		5.82789743		 0.00038992		-0.00014805		 0.00001505
Mg		4.54377588		1.65497500		2.76050933		 0.00007604		 0.00015866		-0.00050141
Mg		9.48022374		3.22752534		2.69760748		-0.00062885		-0.00000845		-0.00019198
Mg		11.55577569		0.49836667		7.16628765		 0.00062885		-0.00000845		-0.00019198
Mg		2.46822393		4.03481548		7.02483037		-0.00007604		 0.00015866		-0.00050141
Mg		0.00000000		2.26505404		7.13398336		 0.00016998		-0.00021464		-0.00001703
Mg		7.01199981		-0.11478644		2.86966373		-0.00016998		-0.00021464		-0.00001703
Mg		0.00000000		2.48917719		1.53089065		 0.00024617		 0.00022770		 0.00026915
Mg		7.01199981		-0.23998289		5.99957082		-0.00024617		 0.00022770		 0.00026915
Mg		0.00000000		-0.23142544		5.78561226		-0.00018446		-0.00006091		 0.00004430
Mg		7.01199981		2.49773604		1.31693350		 0.00018446		-0.00006091		 0.00004430
Mg		0.00000000		-0.12069054		3.01725090		-0.00045021		 0.00037820		-0.00016382
Mg		7.01199981		2.25914994		7.28157053		 0.00045021		 0.00037820		-0.00016382
Si		0.00000000		-0.00268980		0.06724368		 0.00028357		-0.00032818		-0.00010495
Si		7.01199981		2.37714927		4.33156331		-0.00028357		-0.00032818		-0.00010495
Si		5.28143826		0.07025463		0.04165689		-0.00000052		-0.00027265		 0.00008097
Si		8.74256136		5.03518243		-0.15693977		 0.00026797		-0.00000111		-0.00022988
Si		12.29343807		2.30602235		4.31174039		-0.00026797		-0.00000111		-0.00022988
Si		1.73056155		2.45009651		4.30597652		 0.00000052		-0.00027265		 0.00008097
O		5.82416704		3.27417478		8.53225746		 0.00027794		 0.00005319		-0.00039349
O		8.19983258		1.14065603		8.61759911		 0.00038093		 0.00000368		-0.00059446
O		12.83616825		3.86981752		4.14891895		-0.00038093		 0.00000368		-0.00059446
O		1.18783277		0.89433430		4.26793783		-0.00027794		 0.00005319		-0.00039349
O		1.09807917		3.53930129		-0.09797727		 0.00016564		 0.00017312		 0.00001108
O		12.92592045		1.56620589		-0.01905301		-0.00007150		 0.00019417		-0.00004864
O		8.11007898		3.94604637		4.24526663		 0.00007150		 0.00019417		-0.00004864
O		5.91392064		0.81014121		4.37070289		-0.00016564		 0.00017312		 0.00001108
O		3.49898791		-0.00815215		3.00926142		 0.00035788		-0.00082759		 0.00009773
O		10.52501171		4.87605211		2.81389449		-0.00022280		 0.00041327		 0.00044315
O		10.51098912		2.14689203		7.28257325		 0.00022280		 0.00041327		 0.00044315
O		3.51301190		2.37168833		7.27358246		-0.00035788		-0.00082759		 0.00009773
O		3.57892470		2.55921725		1.31011363		-0.00002865		-0.00009566		 0.00049079
O		10.44507492		2.43660262		1.31501782		 0.00023181		 0.00022210		 0.00069319
O		10.59092451		4.81644170		5.57933746		-0.00023181		 0.00022210		 0.00069319
O		3.43307511		-0.16994142		5.77879379		 0.00002865		-0.00009566		 0.00049079
O		1.06582397		0.68221429		1.30759352		-0.00013896		-0.00015888		-0.00038000
O		12.95817705		4.31982242		1.16209031		 0.00033822		-0.00007126		-0.00045941
O		8.07782378		1.59066234		5.63077048		-0.00033822		-0.00007126		-0.00045941
O		5.94617584		3.06205477		5.57191315		 0.00013896		-0.00015888		-0.00038000
O		6.02751504		3.17910328		3.02825132		-0.00052505		 0.00045408		 0.00045446
O		7.99648318		1.67705859		3.08833434		 0.00017287		-0.00002612		 0.00004162
O		13.03951625		4.05689767		7.35265258		-0.00017287		-0.00002612		 0.00004162
O		0.98448477		0.44994460		7.49693149		 0.00052505		 0.00045408		 0.00045446
O		5.81294784		0.72582051		1.36513960		 0.00011149		-0.00011607		-0.00006893
O		8.21105178		4.27146627		1.22331349		-0.00006515		 0.00026060		-0.00017621
O		12.82494765		1.54230759		5.69199365		 0.00006515		 0.00026060		-0.00017621
O		1.19905197		3.10566100		5.62945923		-0.00011149		-0.00011607		-0.00006893
O		1.24673357		3.37813749		2.89822360		-0.00005212		 0.00005596		 0.00012608
O		12.77726605		1.48780752		2.97383680		 0.00014195		-0.00013444		 0.00003967
O		8.25873338		3.86764660		7.23815644		-0.00014195		-0.00013444		 0.00003967
O		5.76526624		0.64897741		7.36690377		 0.00005212		 0.00005596		 0.00012608
O		3.64343510		0.02207798		0.06015034		 0.00018303		-0.00040615		-0.00060230
O		10.38056592		5.08203241		-0.14224823		 0.00002326		-0.00035491		 0.00057478
O		10.65543491		2.35287233		4.32643193		-0.00002326		-0.00035491		 0.00057478
O		3.36856471		2.40191846		4.32446997		-0.00018303		-0.00040615		-0.00060230
H		4.20719989		3.03046852		0.75068366		-0.00001973		-0.00018073		 0.00027769
H		9.81679973		2.00866728		0.79155661		 0.00015788		 0.00007232		 0.00029119
H		11.21919970		4.38850776		5.05587625		-0.00015788		 0.00007232		 0.00029119
H		2.80479992		0.30130844		5.21936383		 0.00001973		-0.00018073		 0.00027769
H		3.78647990		0.76242596		3.89306510		-0.00027941		 0.00010962		 0.00038432
H		10.23751972		4.03218598		3.76227447		-0.00043815		 0.00050476		 0.00010234
H		10.79847971		1.30302590		8.23095464		 0.00043815		 0.00050476		 0.00010234
H		3.22551991		3.14226644		8.15738474		 0.00027941		 0.00010962		 0.00038432
