# total energy = -20636.5441744 eV	

CRYSTAL	
PRIMVEC	
		10.04380923		0.00000000		0.00054270	
		0.00000000		5.79577472		0.00000000	
		0.00007035		0.00000000		4.74114781	
PRIMCOORD
   28 1	
Si		3.34852634		0.00000000		4.39798855		-0.00007998		-0.00000004		-0.00011431	
Si		6.69535625		0.00000000		0.34369895		 0.00007978		 0.00000020		 0.00011572	
Si		8.37050734		2.89788535		4.39822573		-0.00006262		-0.00000013		-0.00012780	
Si		1.67337425		2.89788535		0.34346277		 0.00006275		 0.00000003		 0.00012614	
Mg		0.00000000		0.00000000		0.00000000		 0.00000010		 0.00000025		 0.00000001	
Mg		5.02190562		2.89788535		0.00027035		-0.00000012		-0.00000015		-0.00000003	
Mg		5.02194079		0.00000000		2.37084425		 0.00000010		 0.00000022		 0.00000016	
Mg		0.00003518		2.89788535		2.37057391		-0.00000016		-0.00000021		-0.00000004	
Mg		2.51015333		1.44876981		2.37076486		-0.00000865		-0.00000078		 0.00000540	
Mg		7.53372926		4.34700088		2.37092264		 0.00000862		 0.00000070		-0.00000531	
Mg		7.53372826		1.44877082		2.37092264		 0.00000862		-0.00000076		-0.00000535	
Mg		2.51015333		4.34700088		2.37076486		-0.00000859		 0.00000079		 0.00000546	
O		8.18655716		0.00000000		1.06312518		 0.00027582		 0.00000014		 0.00011662	
O		1.85732543		0.00000000		3.67856232		-0.00027620		 0.00000012		-0.00011666	
O		3.16423949		2.89788535		1.06311815		 0.00025871		-0.00000002		 0.00012519	
O		6.87964210		2.89788635		3.67857036		-0.00025816		-0.00000014		-0.00012532	
O		3.34863991		0.00000000		1.26572715		-0.00016555		 0.00000003		 0.00010969	
O		6.69524168		0.00000000		3.47596236		 0.00016553		 0.00000001		-0.00011055	
O		8.37093647		2.89788535		1.26591609		-0.00015221		-0.00000006		 0.00010259	
O		1.67294511		2.89788535		3.47577141		 0.00015221		 0.00000001		-0.00010143	
O		0.92809439		1.60661712		1.06361763		-0.00012731		-0.00007035		-0.00001940	
O		9.11578821		4.18915357		3.67806987		 0.00012690		 0.00006970		 0.00001939	
O		9.11578720		1.60661712		3.67806987		 0.00012693		-0.00006988		 0.00001956	
O		0.92809439		4.18915357		1.06361864		-0.00012708		 0.00006987		-0.00001938	
O		5.95039397		4.50446931		1.06394325		-0.00011053		-0.00007124		-0.00002853	
O		4.09348863		1.29130139		3.67774525		 0.00011086		 0.00007173		 0.00002836	
O		4.09348863		4.50446931		3.67774525		 0.00011079		-0.00007165		 0.00002853	
O		5.95039296		1.29130139		1.06394325		-0.00011057		 0.00007161		-0.00002872	
