# total energy = -20636.91919 eV	

CRYSTAL	
PRIMVEC	
		10.55599743		0.00000000		-0.00101505	
		0.00000000		6.09300347		0.00000000	
		-0.00090450		0.00000000		4.85359726	
PRIMCOORD
   28 1	
Si		3.51827788		0.00000000		4.48987771		-0.00005252		-0.00000020		 0.00002027	
Si		7.03681907		0.00000000		0.36270752		 0.00005262		-0.00000018		-0.00002038	
Si		8.79637408		3.04650274		4.48932898		-0.00004111		 0.00000024		 0.00001083	
Si		1.75872287		3.04650173		0.36325725		 0.00004074		 0.00000035		-0.00001052	
Mg		0.00000000		0.00000000		0.00000000		 0.00000002		 0.00000006		 0.00000003	
Mg		5.27800073		3.04650173		-0.00050652		-0.00000025		 0.00000008		 0.00000011	
Mg		5.27754848		0.00000000		2.42629312		-0.00000025		 0.00000006		 0.00000010	
Mg		-0.00045125		3.04650173		2.42679964		-0.00000001		 0.00000009		 0.00000006	
Mg		2.63724061		1.52300514		2.42664989		 0.00037013		 0.00029736		 0.00000071	
Mg		7.91785735		4.56999933		2.42593634		-0.00037020		-0.00029732		-0.00000066	
Mg		7.91785634		1.52300514		2.42593634		-0.00037013		 0.00029749		-0.00000054	
Mg		2.63724061		4.56999832		2.42664989		 0.00037017		-0.00029722		 0.00000079	
O		8.54702052		0.00000000		1.08556382		-0.00000203		 0.00000009		 0.00015536	
O		2.00807744		0.00000000		3.76702242		 0.00000210		-0.00000028		-0.00015547	
O		3.26842282		3.04650173		1.08634671		-0.00008062		 0.00000009		 0.00015809	
O		7.28667514		3.04650274		3.76623852		 0.00008061		 0.00000012		-0.00015792	
O		3.51807789		0.00000000		1.27242648		 0.00003946		-0.00000006		 0.00013958	
O		7.03701907		0.00000000		3.58015875		-0.00004002		 0.00000008		-0.00014033	
O		8.79668463		3.04650274		1.27184760		 0.00011798		 0.00000017		 0.00012976	
O		1.75841333		3.04650173		3.58073763		-0.00011822		-0.00000009		-0.00012947	
O		1.00334678		1.73892236		1.08623214		 0.00003584		 0.00000082		 0.00011882	
O		9.55175118		4.35408211		3.76635409		-0.00003612		-0.00000093		-0.00011896	
O		9.55175118		1.73892337		3.76635409		-0.00003618		 0.00000133		-0.00011901	
O		1.00334678		4.35408111		1.08623214		 0.00003561		-0.00000076		 0.00011847	
O		6.28185704		4.78540098		1.08576482		 0.00008783		 0.00000900		 0.00010265	
O		4.27324092		1.30760349		3.76682041		-0.00008702		-0.00000942		-0.00010270	
O		4.27324092		4.78539997		3.76682142		-0.00008656		 0.00000831		-0.00010286	
O		6.28185603		1.30760349		1.08576482		 0.00008814		-0.00000929		 0.00010322	
