# total energy = -20637.1157368 eV	

CRYSTAL	
PRIMVEC	
		10.26117063		0.00000000		0.00002010	
		0.00000000		5.92205297		0.00000000	
		-0.00028140		0.00000000		4.78981996	
PRIMCOORD
   28 1	
Si		3.42059389		0.00000000		4.43931717		-0.00006084		-0.00000022		-0.00009549	
Si		6.84029936		0.00000000		0.35052893		 0.00006090		-0.00000006		 0.00009538	
Si		8.55128071		2.96102950		4.43928802		-0.00004735		 0.00000009		-0.00010262	
Si		1.70961254		2.96102849		0.35055807		 0.00004721		 0.00000021		 0.00010284	
Mg		0.00000000		0.00000000		0.00000000		-0.00000010		-0.00000005		 0.00000006	
Mg		5.13058632		2.96102849		0.00001206		-0.00000008		-0.00000007		 0.00000004	
Mg		5.13044663		0.00000000		2.39492305		-0.00000029		-0.00000012		-0.00000009	
Mg		-0.00013970		2.96102849		2.39491099		 0.00000012		 0.00000027		 0.00000012	
Mg		2.56414495		1.48031375		2.39498938		-0.00000490		 0.00000082		 0.00000389	
Mg		7.69674830		4.44174424		2.39485672		 0.00000486		-0.00000086		-0.00000392	
Mg		7.69674830		1.48031475		2.39485672		 0.00000484		 0.00000081		-0.00000391	
Mg		2.56414495		4.44174324		2.39498938		-0.00000493		-0.00000080		 0.00000392	
O		8.34031312		0.00000000		1.07126166		 0.00017570		-0.00000019		 0.00007266	
O		1.92058013		0.00000000		3.71858343		-0.00017576		-0.00000039		-0.00007303	
O		3.20921224		2.96102849		1.07153000		 0.00016123		 0.00000052		 0.00008017	
O		7.05168101		2.96102950		3.71831509		-0.00016118		 0.00000008		-0.00008022	
O		3.42054967		0.00000000		1.27106270		-0.00006383		-0.00000028		 0.00009877	
O		6.84034358		0.00000000		3.51878239		 0.00006428		-0.00000016		-0.00009856	
O		8.55162141		2.96102950		1.27099235		-0.00005179		-0.00000001		 0.00008783	
O		1.70927084		2.96102849		3.51885375		 0.00005211		 0.00000012		-0.00008803	
O		0.95969058		1.66214237		1.07168477		-0.00005720		-0.00006219		 0.00000161	
O		9.30120267		4.25991562		3.71816032		 0.00005723		 0.00006284		-0.00000105	
O		9.30120166		1.66214237		3.71816032		 0.00005724		-0.00006258		-0.00000123	
O		0.95969058		4.25991562		1.07168577		-0.00005651		 0.00006305		 0.00000089	
O		6.09070302		4.62314875		1.07174205		-0.00004323		-0.00006246		-0.00000972	
O		4.17019023		1.29890924		3.71810404		 0.00004309		 0.00006201		 0.00001014	
O		4.17019023		4.62314875		3.71810404		 0.00004234		-0.00006262		 0.00000934	
O		6.09070202		1.29890924		1.07174105		-0.00004315		 0.00006224		-0.00000980	
