# total energy = -11145.9396584 eV	

CRYSTAL	
PRIMVEC	
		6.69689992		0.00000000		0.00000000	
		0.00000000		4.41000236		0.00000000	
		0.00000000		0.00000000		8.29200103	
PRIMCOORD
   12 1	
Ca		0.13092372		1.10249992		5.64411578		-0.00085900		0.00000000		 0.00031904	
Ca		6.56597486		3.30749976		2.64788391		 0.00085900		0.00000000		-0.00031904	
Ca		3.21752624		3.30749976		1.49811593		 0.00085900		0.00000000		 0.00031904	
Ca		3.47937502		1.10249992		6.79388376		-0.00085900		-0.00000000		-0.00031904	
Si		1.81211415		1.10249992		3.19739469		-0.00019693		0.00000000		-0.00004584	
Si		4.88478577		3.30749976		5.09460501		 0.00019693		0.00000000		 0.00004584	
Si		1.53633581		3.30749976		7.34339520		 0.00019693		-0.00000000		-0.00004584	
Si		5.16056411		1.10249992		0.94860516		-0.00019693		0.00000000		 0.00004584	
Mg		0.96529115		1.10249992		0.52919506		-0.00003313		0.00000000		-0.00058447	
Mg		5.73160877		3.30749976		7.76280396		 0.00003313		0.00000000		 0.00058447	
Mg		2.38315881		3.30749976		4.67519491		 0.00003313		-0.00000000		-0.00058447	
Mg		4.31374112		1.10249992		3.61680412		-0.00003313		-0.00000000		 0.00058447	
