# total energy = -11146.4711457 eV	

CRYSTAL	
PRIMVEC	
		7.81305000		0.00000000		0.00000000	
		0.00000000		4.40999794		0.00000000	
		0.00000000		0.00000000		8.29199778	
PRIMCOORD
   12 1	
Ca		0.15274513		1.10250027		5.64411607		 0.00046203		0.00000000		 0.00039274	
Ca		7.66030487		3.30750002		2.64788405		-0.00046203		-0.00000000		-0.00039274	
Ca		3.75377987		3.30750002		1.49811562		-0.00046203		0.00000000		 0.00039274	
Ca		4.05927013		1.10250027		6.79388372		 0.00046203		0.00000000		-0.00039274	
Si		2.11413320		1.10250027		3.19739461		-0.00000634		0.00000000		-0.00043789	
Si		5.69891680		3.30750002		5.09460473		 0.00000634		0.00000000		 0.00043789	
Si		1.79239180		3.30750002		7.34339506		 0.00000634		0.00000000		-0.00043789	
Si		6.02065820		1.10250027		0.94860506		-0.00000634		0.00000000		 0.00043789	
Mg		1.12617303		1.10250027		0.52919507		-0.00064257		0.00000000		-0.00071662	
Mg		6.68687697		3.30750002		7.76280427		 0.00064257		0.00000000		 0.00071662	
Mg		2.78035197		3.30750002		4.67519473		 0.00064257		0.00000000		-0.00071662	
Mg		5.03269803		1.10250027		3.61680382		-0.00064257		0.00000000		 0.00071662	
