# total energy = -11146.5658199 eV	

CRYSTAL	
PRIMVEC	
		7.06894960		0.00000000		0.00000000	
		0.00000000		4.40999955		0.00000000	
		0.00000000		0.00000000		8.29199805	
PRIMCOORD
   12 1	
Ca		0.13819796		1.10250024		5.64411586		 0.00038446		-0.00000000		 0.00048813	
Ca		6.93075163		3.30750002		2.64788361		-0.00038446		-0.00000000		-0.00048813	
Ca		3.39627683		3.30750002		1.49811613		-0.00038446		0.00000000		 0.00048813	
Ca		3.67267276		1.10250024		6.79388334		 0.00038446		0.00000000		-0.00048813	
Si		1.91278707		1.10250024		3.19739476		 0.00058423		-0.00000000		 0.00064350	
Si		5.15616252		3.30750002		5.09460470		-0.00058423		0.00000000		-0.00064350	
Si		1.62168773		3.30750002		7.34339449		-0.00058423		0.00000000		 0.00064350	
Si		5.44726187		1.10250024		0.94860497		 0.00058423		0.00000000		-0.00064350	
Mg		1.01891769		1.10250024		0.52919500		-0.00007317		-0.00000000		-0.00010095	
Mg		6.05003049		3.30750002		7.76280376		 0.00007317		-0.00000000		 0.00010095	
Mg		2.51555711		3.30750002		4.67519473		 0.00007317		0.00000000		-0.00010095	
Mg		4.55339249		1.10250024		3.61680403		-0.00007317		0.00000000		 0.00010095	
