# total energy = -20634.0035478 eV	

CRYSTAL	
PRIMVEC	
		11.05946013		0.00000000		0.07529928	
		0.00000000		6.15200560		0.00000000	
		0.03528390		0.00000000		4.87405109	
PRIMCOORD
   28 1	
Si		9.24179339		3.07600381		4.37006356		 0.00037195		0.00000000		 0.00008133	
Si		1.85295165		3.07600381		0.57929490		-0.00037194		0.00000000		-0.00008132	
Si		3.76779470		0.00000000		4.54946753		-0.00005503		-0.00000000		 0.00020940	
Si		7.32694933		0.00000000		0.39989194		 0.00005500		-0.00000000		-0.00020939	
Mg		5.52973108		3.07600381		0.03765166		-0.00000002		-0.00000000		 0.00000002	
Mg		0.01764195		0.00000000		2.43703060		 0.00000006		0.00000000		 0.00000012	
Mg		0.01764094		3.07600381		2.43702757		-0.00000001		-0.00000000		-0.00000004	
Mg		5.54737202		0.00000000		2.47467923		0.00000000		 0.00000001		-0.00000000	
Mg		2.88741693		1.57439689		2.56790050		 0.00028184		-0.00006588		 0.00029545	
Mg		8.20732811		4.57761174		2.38145795		-0.00028184		 0.00006589		-0.00029546	
Mg		8.20732811		1.57439689		2.38145795		-0.00028183		-0.00006589		-0.00029546	
Mg		2.88741693		4.57761174		2.56790050		 0.00028184		 0.00006588		 0.00029545	
O		3.39681635		3.07600381		1.24042316		-0.00008952		0.00000000		-0.00074836	
O		7.69792870		3.07600381		3.70893529		 0.00008954		0.00000000		 0.00074835	
O		1.86945521		3.07600381		3.82800581		-0.00044939		-0.00000000		 0.00000591	
O		9.22528983		3.07600381		1.12135365		 0.00044941		-0.00000000		-0.00000593	
O		8.79622144		0.00000000		1.21047229		-0.00031140		0.00000000		-0.00026078	
O		2.29852259		0.00000000		3.73888617		 0.00031135		-0.00000000		 0.00026076	
O		3.74433343		0.00000000		1.31056533		-0.00006793		0.00000000		 0.00003924	
O		7.35041060		0.00000000		3.63879414		 0.00006790		0.00000000		-0.00003927	
O		1.12687776		1.76189594		1.38563916		-0.00005200		 0.00021503		-0.00005334	
O		9.96786729		4.39011169		3.56371930		 0.00005202		-0.00021503		 0.00005333	
O		9.96786729		1.76189594		3.56371930		 0.00005202		 0.00021503		 0.00005333	
O		1.12687776		4.39011169		1.38563916		-0.00005200		-0.00021503		-0.00005334	
O		6.55225847		1.32495590		1.10407162		-0.00022838		-0.00045973		 0.00004634	
O		4.54248556		4.82705273		3.84528684		 0.00022835		 0.00045973		-0.00004635	
O		4.54248556		1.32495590		3.84528684		 0.00022835		-0.00045973		-0.00004635	
O		6.55225847		4.82705172		1.10407162		-0.00022838		 0.00045972		 0.00004634	
