# total energy = -20634.8012011 eV	

CRYSTAL	
PRIMVEC	
		10.30456667		0.00000000		0.01461906	
		0.00000000		5.97299795		0.00000000	
		0.00669282		0.00000000		4.75691663	
PRIMCOORD
   28 1	
Si		8.61039661		2.98649999		4.32937485		 0.00020519		0.00000000		 0.00004661	
Si		1.70087198		2.98649999		0.44216488		-0.00020519		-0.00000000		-0.00004669	
Si		3.40574651		0.00000000		4.38544795		 0.00029265		0.00000000		-0.00003179	
Si		6.90552208		0.00000000		0.38609078		-0.00029265		0.00000000		 0.00003174	
Mg		5.15228536		2.98649999		0.00731054		-0.00000001		-0.00000000		-0.00000001	
Mg		0.00334843		0.00000000		2.37845933		0.00000000		0.00000000		0.00000000	
Mg		0.00334843		2.98649999		2.37845933		-0.00000001		-0.00000000		 0.00000001	
Mg		5.15563379		0.00000000		2.38576987		-0.00000000		-0.00000000		 0.00000001	
Mg		2.66736167		1.53686756		2.40410941		 0.00011954		 0.00021686		-0.00007978	
Mg		7.64390591		4.43613342		2.36743033		-0.00011953		-0.00021686		 0.00007979	
Mg		7.64390591		1.53686756		2.36743033		-0.00011953		 0.00021686		 0.00007979	
Mg		2.66736167		4.43613342		2.40410941		 0.00011954		-0.00021686		-0.00007978	
O		3.24560007		2.98649999		1.09055859		-0.00025273		0.00000000		 0.00046610	
O		7.06566751		2.98649999		3.68098013		 0.00025274		0.00000000		-0.00046609	
O		1.71669817		2.98649999		3.58738276		 0.00024972		-0.00000000		-0.00030726	
O		8.59457042		2.98649999		1.18415697		-0.00024973		0.00000000		 0.00030731	
O		8.35904382		0.00000000		1.21018719		-0.00007699		-0.00000001		-0.00042325	
O		1.95222376		0.00000000		3.56135255		 0.00007700		-0.00000000		 0.00042325	
O		3.43267652		0.00000000		1.24309423		 0.00016494		-0.00000000		 0.00021203	
O		6.87859208		0.00000000		3.52844450		-0.00016494		-0.00000000		-0.00021199	
O		0.99435285		1.68289640		1.22487196		-0.00032406		 0.00003237		-0.00015004	
O		9.31691473		4.29010458		3.54666777		 0.00032406		-0.00003238		 0.00015004	
O		9.31691473		1.68289640		3.54666777		 0.00032407		 0.00003237		 0.00015003	
O		0.99435285		4.29010458		1.22487196		-0.00032407		-0.00003237		-0.00015003	
O		6.11091250		1.30330130		1.07013336		-0.00014306		 0.00023075		-0.00023655	
O		4.20035508		4.66969969		3.70140536		 0.00014306		-0.00023075		 0.00023655	
O		4.20035508		1.30330130		3.70140536		 0.00014306		 0.00023075		 0.00023655	
O		6.11091250		4.66969969		1.07013336		-0.00014307		-0.00023075		-0.00023655	
