# total energy = -20634.1793442 eV	

CRYSTAL	
PRIMVEC	
		10.06178514		0.00000000		0.00590424	
		0.00000000		5.84280137		0.00000000	
		0.00261849		0.00000000		4.70050283	
PRIMCOORD
   28 1	
Si		8.41702770		2.92140069		4.30062707		 0.00015597		-0.00000000		-0.00014383	
Si		1.64737593		2.92140069		0.40577091		-0.00015597		-0.00000000		 0.00014392	
Si		3.31375663		0.00000000		4.32767031		-0.00030243		-0.00000000		 0.00070507	
Si		6.75064700		0.00000000		0.37872767		 0.00030244		-0.00000000		-0.00070498	
Mg		5.03089055		2.92140069		0.00295010		0.00000000		-0.00000000		0.00000000	
Mg		0.00131127		0.00000000		2.35024939		0.00000000		-0.00000000		-0.00000001	
Mg		0.00131127		2.92140069		2.35024939		0.00000000		0.00000000		-0.00000002	
Mg		5.03220181		0.00000000		2.35319848		 0.00000001		0.00000000		-0.00000001	
Mg		2.60229877		1.50535470		2.35468364		-0.00005114		 0.00003027		 0.00058032	
Mg		7.46210486		4.33744668		2.35171433		 0.00005113		-0.00003027		-0.00058033	
Mg		7.46210486		1.50535470		2.35171433		 0.00005113		 0.00003027		-0.00058033	
Mg		2.60229877		4.33744668		2.35468364		-0.00005114		-0.00003027		 0.00058032	
O		3.18333460		2.92140069		1.05565079		 0.00004570		-0.00000000		-0.00016340	
O		6.88106903		2.92140069		3.65074618		-0.00004571		0.00000000		 0.00016339	
O		1.67846721		2.92140069		3.50495088		-0.00057831		-0.00000000		 0.00061152	
O		8.38593642		2.92140069		1.20144709		 0.00057832		-0.00000000		-0.00061158	
O		8.19795412		0.00000000		1.19213780		 0.00015308		 0.00000001		-0.00020894	
O		1.86644951		0.00000000		3.51425916		-0.00015309		0.00000000		 0.00020893	
O		3.34911231		0.00000000		1.22963883		-0.00012933		0.00000000		 0.00046878	
O		6.71529132		0.00000000		3.47675915		 0.00012933		0.00000000		-0.00046884	
O		0.94550841		1.62225056		1.17677061		 0.00011636		-0.00036225		 0.00000959	
O		9.11889522		4.22055082		3.52962737		-0.00011635		 0.00036226		-0.00000959	
O		9.11889522		1.62225056		3.52962737		-0.00011635		-0.00036226		-0.00000958	
O		0.94550841		4.22055082		1.17677061		 0.00011636		 0.00036225		 0.00000959	
O		5.95588779		1.29456828		1.05829556		 0.00010223		-0.00013975		-0.00043407	
O		4.10851584		4.54823309		3.64810241		-0.00010222		 0.00013975		 0.00043406	
O		4.10851584		1.29456828		3.64810241		-0.00010223		-0.00013975		 0.00043407	
O		5.95588779		4.54823309		1.05829556		 0.00010223		 0.00013976		-0.00043406	
