# total energy = -20634.5581496 eV	

CRYSTAL	
PRIMVEC	
		10.69858369		0.00000000		0.03207903	
		0.00000000		6.13967140		0.00000000	
		0.01496280		0.00000000		4.83587573	
PRIMCOORD
   28 1	
Si		8.93014557		3.06983469		4.35968969		-0.00018064		-0.00000000		 0.00022013	
Si		1.78340092		3.06983469		0.50826810		 0.00018064		-0.00000000		-0.00022009	
Si		3.57361901		0.00000000		4.47158615		 0.00031111		0.00000000		-0.00021535	
Si		7.13992748		0.00000000		0.39637164		-0.00031111		0.00000000		 0.00021538	
Mg		5.34929387		3.06983469		0.01603951		-0.00000000		0.00000000		0.00000000	
Mg		0.00747938		0.00000000		2.41793989		 0.00000001		0.00000000		 0.00000002	
Mg		0.00747938		3.06983469		2.41793989		-0.00000000		-0.00000000		-0.00000001	
Mg		5.35677325		0.00000000		2.43397839		-0.00000000		0.00000000		-0.00000000	
Mg		2.77765570		1.57571119		2.48487516		-0.00038732		-0.00001053		-0.00006508	
Mg		7.93588978		4.56395819		2.38308162		 0.00038733		 0.00001053		 0.00006507	
Mg		7.93588978		1.57571119		2.38308162		 0.00038733		-0.00001053		 0.00006507	
Mg		2.77765570		4.56395819		2.48487516		-0.00038732		 0.00001053		-0.00006508	
O		3.33467928		3.06983469		1.15975851		-0.00011504		-0.00000000		 0.00004877	
O		7.37886721		3.06983469		3.70819928		 0.00011504		-0.00000000		-0.00004877	
O		1.78956802		3.06983469		3.72150505		-0.00002634		0.00000000		-0.00040916	
O		8.92397847		3.06983469		1.14645274		 0.00002634		0.00000000		 0.00040914	
O		8.60212663		0.00000000		1.22554428		-0.00044887		-0.00000000		 0.00001697	
O		2.11141885		0.00000000		3.64241352		 0.00044886		0.00000000		-0.00001698	
O		3.58170398		0.00000000		1.26453248		-0.00002367		-0.00000000		-0.00001629	
O		7.13184251		0.00000000		3.60342531		 0.00002367		0.00000000		 0.00001627	
O		1.06764630		1.76118318		1.30736855		 0.00007659		-0.00008638		-0.00004671	
O		9.64590019		4.37848620		3.56058823		-0.00007659		 0.00008638		 0.00004671	
O		9.64590019		1.76118318		3.56058823		-0.00007659		-0.00008639		 0.00004671	
O		1.06764630		4.37848620		1.30736855		 0.00007660		 0.00008638		-0.00004671	
O		6.35136570		1.31588218		1.08925339		-0.00017010		 0.00025733		 0.00016189	
O		4.36218079		4.82378720		3.77870440		 0.00017010		-0.00025733		-0.00016190	
O		4.36218079		1.31588218		3.77870440		 0.00017010		 0.00025733		-0.00016190	
O		6.35136570		4.82378720		1.08925339		-0.00017010		-0.00025733		 0.00016190	
