# total energy = -20634.4485437 eV	

CRYSTAL	
PRIMVEC	
		10.13508264		0.00000000		0.00865416	
		0.00000000		5.88120926		0.00000000	
		0.00390246		0.00000000		4.71883226	
PRIMCOORD
   28 1	
Si		8.47482960		2.94060261		4.30792042		 0.00007190		0.00000000		 0.00024543	
Si		1.66414842		2.94060261		0.41956499		-0.00007190		0.00000000		-0.00024530	
Si		3.34061081		0.00000000		4.34943107		 0.00005955		0.00000000		-0.00011148	
Si		6.79836721		0.00000000		0.37805434		-0.00005955		0.00000000		 0.00011161	
Mg		5.06753930		2.94060261		0.00432809		-0.00000001		-0.00000000		0.00000000	
Mg		0.00194921		0.00000000		2.35941512		0.00000000		0.00000000		-0.00000001	
Mg		0.00194921		2.94060261		2.35941512		0.00000000		-0.00000001		-0.00000000	
Mg		5.06948952		0.00000000		2.36374321		-0.00000001		0.00000000		-0.00000000	
Mg		2.62159370		1.51476609		2.37373897		 0.00007695		 0.00023308		-0.00000665	
Mg		7.51738432		4.36644013		2.35374745		-0.00007694		-0.00023305		 0.00000662	
Mg		7.51738432		1.51476609		2.35374745		-0.00007694		 0.00023306		 0.00000663	
Mg		2.62159370		4.36644013		2.37373897		 0.00007694		-0.00023308		-0.00000665	
O		3.20315020		2.94060261		1.06768169		-0.00022698		0.00000000		 0.00067712	
O		6.93582782		2.94060261		3.65980474		 0.00022698		0.00000000		-0.00067711	
O		1.68784221		2.94060261		3.53388671		 0.00002780		0.00000000		-0.00048970	
O		8.45113581		2.94060261		1.19359971		-0.00002781		0.00000000		 0.00048962	
O		8.24725958		0.00000000		1.19613631		 0.00017392		-0.00000001		-0.00070157	
O		1.89171845		0.00000000		3.53135011		-0.00017394		-0.00000000		 0.00070157	
O		3.37364625		0.00000000		1.23696655		 0.00004662		-0.00000000		 0.00014839	
O		6.76533177		0.00000000		3.49051987		-0.00004661		-0.00000000		-0.00014847	
O		0.96151456		1.63941430		1.19373316		-0.00026512		 0.00012650		-0.00010410	
O		9.17746346		4.24179193		3.53375225		 0.00026512		-0.00012648		 0.00010409	
O		9.17746346		1.63941430		3.53375225		 0.00026512		 0.00012648		 0.00010409	
O		0.96151456		4.24179193		1.19373316		-0.00026511		-0.00012650		-0.00010410	
O		6.00327942		1.29650333		1.06003853		-0.00016797		 0.00041218		-0.00033237	
O		4.13569961		4.58470290		3.66744790		 0.00016797		-0.00041218		 0.00033236	
O		4.13569961		1.29650333		3.66744790		 0.00016798		 0.00041218		 0.00033236	
O		6.00327942		4.58470290		1.06003853		-0.00016796		-0.00041218		-0.00033237	
