# total energy = -20624.4200286 eV	

CRYSTAL	
PRIMVEC	
		14.37735984		0.00000000		0.19821665	
		0.00000000		6.37909642		0.00000000	
		0.07799865		0.00000000		6.04691216	
PRIMCOORD
   28 1	
Si		11.92008902		3.18954922		3.55869362		 0.00012550		-0.00000000		 0.00013099	
Si		2.53530991		3.18954821		2.68643620		-0.00020147		-0.00000001		-0.00011979	
Si		5.52510171		0.00000000		6.42559130		-0.00006060		-0.00000000		 0.00058568	
Si		8.93010412		0.00000000		-0.18071321		 0.00045525		0.00000000		 0.00014832	
Mg		7.18871834		3.18954922		0.09910024		 0.00003396		-0.00000002		 0.00001166	
Mg		0.03898517		0.00000000		3.02345911		-0.00001638		 0.00000009		 0.00000074	
Mg		0.03901044		3.18954922		3.02345507		-0.00001795		 0.00000002		 0.00000136	
Mg		7.22745885		0.00000000		3.12264933		 0.00022733		-0.00000002		 0.00017171	
Mg		3.83187895		1.86698635		5.65378785		-0.00074760		 0.00047264		-0.00001047	
Mg		10.62349066		4.51209894		0.59134703		 0.00072818		-0.00042288		 0.00000061	
Mg		10.62349066		1.86699848		0.59134703		 0.00072818		 0.00042288		 0.00000061	
Mg		3.83187895		4.51211108		5.65378785		-0.00074761		-0.00047264		-0.00001048	
O		3.41843355		3.18954821		4.13386869		 0.00014331		-0.00000001		 0.00031432	
O		11.03693101		3.18954922		2.11125406		-0.00012116		-0.00000001		-0.00028557	
O		3.35555137		3.18954821		7.22545606		 0.00017869		-0.00000001		-0.00001719	
O		11.09981824		3.18954821		-0.98031410		-0.00015630		-0.00000001		-0.00001495	
O		10.60482052		0.00000000		0.12039190		-0.00039252		 0.00000001		-0.00009872	
O		3.85059155		0.00000000		6.12475511		 0.00027551		-0.00000000		 0.00007344	
O		5.83806282		0.00000000		1.93910401		 0.00057631		0.00000000		 0.00031676	
O		8.61747563		0.00000000		4.30628159		-0.00099473		 0.00000001		-0.00113991	
O		1.46352255		1.86031577		2.80027986		 0.00024754		-0.00029895		 0.00006732	
O		12.99183594		4.51878165		3.44485300		-0.00021018		 0.00030911		-0.00007088	
O		12.99183594		1.86031679		3.44485300		-0.00021017		-0.00030910		-0.00007089	
O		1.46352356		4.51878165		2.80027986		 0.00024756		 0.00029892		 0.00006732	
O		8.57327370		1.50844128		0.51323717		-0.00058434		-0.00011938		 0.00021429	
O		5.88212219		4.87067940		5.73184716		 0.00053902		 0.00012864		-0.00024028	
O		5.88212219		1.50841701		5.73184514		 0.00053902		-0.00012865		-0.00024028	
O		8.57327471		4.87065615		0.51323616		-0.00058433		 0.00011938		 0.00021427	
