# total energy = -20634.7925431 eV	

CRYSTAL	
PRIMVEC	
		10.52910977		0.00000000		0.02604336	
		0.00000000		6.08326772		0.00000000	
		0.01211178		0.00000000		4.80356417	
PRIMCOORD
   28 1	
Si		8.79062657		3.04163588		4.35383296		 0.00045948		0.00000000		-0.00021674	
Si		1.75060004		3.04163588		0.47577760		-0.00045948		-0.00000000		 0.00021672	
Si		3.49789916		0.00000000		4.43301448		 0.00031360		0.00000000		 0.00007397	
Si		7.04332744		0.00000000		0.39659709		-0.00031360		0.00000000		-0.00007398	
Mg		5.26455589		3.04163588		0.01302269		-0.00000000		0.00000000		-0.00000000	
Mg		0.00605690		0.00000000		2.40178310		 0.00000001		0.00000000		 0.00000001	
Mg		0.00605690		3.04163588		2.40178310		-0.00000000		0.00000000		0.00000000	
Mg		5.27061280		0.00000000		2.41480579		 0.00000001		-0.00000000		0.00000000	
Mg		2.72958164		1.56294934		2.44697176		 0.00007527		 0.00007429		-0.00004981	
Mg		7.81164496		4.52032141		2.38263981		-0.00007527		-0.00007429		 0.00004981	
Mg		7.81164496		1.56294934		2.38263981		-0.00007527		 0.00007429		 0.00004981	
Mg		2.72958164		4.52032141		2.44697176		 0.00007527		-0.00007429		-0.00004981	
O		3.30078247		3.04163588		1.12534205		-0.00054747		0.00000000		 0.00016317	
O		7.24044413		3.04163588		3.70426852		 0.00054748		-0.00000000		-0.00016317	
O		1.75759009		3.04163588		3.65999582		 0.00054423		-0.00000000		 0.00045655	
O		8.78363651		3.04163588		1.16961475		-0.00054423		-0.00000001		-0.00045653	
O		8.50230454		0.00000000		1.22566358		-0.00030238		0.00000000		-0.00006878	
O		2.03892206		0.00000000		3.60394699		 0.00030238		-0.00000000		 0.00006878	
O		3.51374456		0.00000000		1.25318603		 0.00047178		0.00000000		-0.00012112	
O		7.02748204		0.00000000		3.57642454		-0.00047179		0.00000000		 0.00012112	
O		1.03889447		1.73532282		1.26893235		-0.00041935		-0.00006491		-0.00011414	
O		9.50233213		4.34794895		3.56067922		 0.00041935		 0.00006490		 0.00011415	
O		9.50233213		1.73532282		3.56067922		 0.00041935		-0.00006490		 0.00011415	
O		1.03889447		4.34794895		1.26893235		-0.00041935		 0.00006490		-0.00011414	
O		6.25121604		1.31143479		1.08448046		-0.00009020		-0.00010716		-0.00002822	
O		4.29001056		4.77183596		3.74513010		 0.00009020		 0.00010716		 0.00002822	
O		4.29001056		1.31143479		3.74513010		 0.00009020		-0.00010716		 0.00002822	
O		6.25121604		4.77183596		1.08448046		-0.00009021		 0.00010716		-0.00002822	
