# total energy = -20634.6609935 eV	

CRYSTAL	
PRIMVEC	
		10.21501230		0.00000000		0.01091880	
		0.00000000		5.92561238		0.00000000	
		0.00495390		0.00000000		4.73735378	
PRIMCOORD
   28 1	
Si		8.53851249		2.96280720		4.31852986		 0.00013183		0.00000000		 0.00019956	
Si		1.68145269		2.96280720		0.42973666		-0.00013183		0.00000000		-0.00019947	
Si		3.37095901		0.00000000		4.36624501		 0.00013126		0.00000000		-0.00018094	
Si		6.84900617		0.00000000		0.38202150		-0.00013126		0.00000000		 0.00018102	
Mg		5.10750514		2.96280720		0.00545738		-0.00000001		-0.00000001		-0.00000000	
Mg		0.00247695		0.00000000		2.36867588		0.00000000		0.00000000		-0.00000000	
Mg		0.00247695		2.96280720		2.36867588		-0.00000000		-0.00000001		0.00000000	
Mg		5.10998310		0.00000000		2.37413326		-0.00000001		0.00000000		0.00000000	
Mg		2.64310373		1.52534318		2.38746835		 0.00013110		 0.00033336		-0.00002852	
Mg		7.57686145		4.40027123		2.36079817		-0.00013110		-0.00033334		 0.00002849	
Mg		7.57686145		1.52534318		2.36079817		-0.00013109		 0.00033335		 0.00002850	
Mg		2.64310373		4.40027123		2.38746835		 0.00013110		-0.00033336		-0.00002852	
O		3.22339952		2.96280720		1.07759353		-0.00025245		0.00000000		 0.00075136	
O		6.99656566		2.96280720		3.67067299		 0.00025245		0.00000000		-0.00075135	
O		1.70174043		2.96280720		3.55906567		-0.00003340		0.00000000		-0.00063844	
O		8.51822476		2.96280720		1.18920085		 0.00003339		0.00000000		 0.00063840	
O		8.30008837		0.00000000		1.20340237		 0.00012155		-0.00000001		-0.00061040	
O		1.91987682		0.00000000		3.54486415		-0.00012156		-0.00000000		 0.00061040	
O		3.40140426		0.00000000		1.23919177		 0.00004030		-0.00000000		 0.00030856	
O		6.81856193		0.00000000		3.50907475		-0.00004029		-0.00000000		-0.00030860	
O		0.97690501		1.66042086		1.20795591		-0.00032593		 0.00011983		-0.00006595	
O		9.24306017		4.26519354		3.54031061		 0.00032593		-0.00011981		 0.00006594	
O		9.24306017		1.66042086		3.54031061		 0.00032593		 0.00011981		 0.00006593	
O		0.97690501		4.26519354		1.20795591		-0.00032592		-0.00011983		-0.00006595	
O		6.05405689		1.29966877		1.06504298		-0.00018826		 0.00044938		-0.00037414	
O		4.16590930		4.62594563		3.68322354		 0.00018827		-0.00044938		 0.00037414	
O		4.16590930		1.29966877		3.68322354		 0.00018827		 0.00044938		 0.00037413	
O		6.05405689		4.62594563		1.06504298		-0.00018826		-0.00044938		-0.00037414	
