# total energy = -22469.0520232 eV

CRYSTAL
PRIMVEC
		9.59659646		0.00000905		-0.82120668
		0.00001811		8.66511518		0.00001811
		-0.98603466		-0.00001811		5.05497794
PRIMECORD
   40 1
Ca		7.19790905		0.48019919		-0.61527719		 0.00005431		 0.00038414		-0.00002689
Ca		1.41269893		8.18487616		4.84908013		-0.00007133		-0.00035562		 0.00002843
Ca		1.90570449		4.81277488		2.32158211		-0.00005368		 0.00034874		 0.00001918
Ca		6.70489082		3.85234845		1.91222355		 0.00005616		-0.00037749		-0.00003184
Mg		1.90561486		1.39470428		2.32050842		 0.00019716		-0.00032682		 0.00011738
Mg		6.70494604		7.27035659		1.91326827		-0.00018587		 0.00036146		-0.00011622
Mg		7.19797242		5.72729265		-0.61421889		-0.00018876		-0.00035519		-0.00012287
Mg		1.41261202		2.93778270		4.84799286		 0.00019700		 0.00035832		 0.00011972
Si		4.84498184		1.33294381		1.10921883		 0.00020444		 0.00013080		 0.00017678
Si		3.76552203		7.33211072		3.12457506		 0.00001165		-0.00002459		-0.00014479
Si		4.25859005		5.66558650		0.59706979		-0.00012746		-0.00014057		-0.00011242
Si		4.35200525		2.99957395		3.63671323		 0.00013576		-0.00009185		 0.00017339
Si		0.04740603		7.33133216		1.52355744		-0.00008808		 0.00017556		-0.00019799
Si		8.56318927		1.33379298		2.71024369		-0.00002505		-0.00015240		 0.00016852
Si		9.05623556		2.99878634		0.18275201		-0.00005131		 0.00018794		 0.00017937
Si		-0.44558413		5.66632794		4.05103645		-0.00017777		-0.00011697		-0.00018158
O		3.27641107		1.38768277		0.82338936		 0.00001481		 0.00025306		 0.00037156
O		5.33422859		7.27741521		3.41041358		-0.00021795		-0.00025659		-0.00040840
O		5.82723958		5.72024761		0.88291193		-0.00014949		 0.00026520		-0.00039531
O		2.78340189		2.94487029		3.35087200		 0.00004550		-0.00026961		 0.00037883
O		3.52653641		4.27070931		0.78162516		 0.00009186		 0.00004258		-0.00007696
O		5.08404893		4.39428909		3.45217778		-0.00000974		 0.00016446		 0.00006290
O		5.57704453		8.60334566		0.92468066		-0.00001135		-0.00016445		 0.00006172
O		3.03348287		0.06176771		3.30908154		 0.00002844		 0.00008579		-0.00006072
O		5.68702853		2.37513875		0.08715776		-0.00005458		 0.00031497		 0.00010735
O		2.92357311		6.28993298		4.14663341		 0.00001957		-0.00031518		-0.00011410
O		3.41657686		6.70768095		1.61913901		 0.00002414		 0.00034662		-0.00008500
O		5.19400034		1.95740255		2.61465669		-0.00004360		-0.00035034		 0.00006981
O		1.02815193		2.94283971		1.28950480		 0.00001328		 0.00012164		-0.00012604
O		7.58239358		5.72230897		2.94428547		 0.00013407		-0.00013960		 0.00014625
O		8.07542992		7.27537466		0.41677568		 0.00008371		 0.00013805		 0.00015399
O		0.53511921		1.38972241		3.81697204		 0.00000615		-0.00013204		-0.00011539
O		0.77775228		0.06108964		1.33341999		 0.00014928		-0.00009748		 0.00027434
O		7.83278870		8.60406899		2.90033859		-0.00014032		 0.00007787		-0.00027516
O		8.32580603		4.39363818		0.37286591		-0.00012359		-0.00010097		-0.00027443
O		0.28474673		4.27150144		3.86094880		 0.00018724		 0.00002836		 0.00026531
O		0.88915217		6.28649375		0.50341923		 0.00008110		-0.00011822		-0.00014280
O		7.72140149		2.37867213		3.73036561		-0.00004048		 0.00009687		 0.00014139
O		8.21444326		1.95394249		1.20288750		-0.00005246		-0.00011603		 0.00014274
O		0.39614389		6.71120438		3.03091996		 0.00007721		 0.00011955		-0.00015004
