# total energy = -22463.6587262 eV

CRYSTAL
PRIMVEC
		11.83752177		-0.00000905		0.22058540
		-0.00000905		9.82362760		0.00005432
		-0.64289880		0.00004527		5.57385064
PRIMECORD
   40 1
Ca		9.32132008		0.04525504		0.54858645		 0.00025667		-0.00022834		 0.00040621
Ca		1.87318249		9.77851197		5.24596003		-0.00023725		 0.00020675		-0.00040794
Ca		2.19460473		4.95700547		2.45905734		-0.00016870		-0.00022052		-0.00046078
Ca		8.99988788		4.86657143		3.33549910		 0.00021408		 0.00022844		 0.00043548
Mg		1.79457800		1.54292995		2.45814752		-0.00015632		 0.00181444		 0.00032431
Mg		9.39984580		8.28082438		3.33635732		 0.00025401		-0.00178989		-0.00031156
Mg		9.72132417		6.45461158		0.54945826		 0.00018741		 0.00181349		-0.00036571
Mg		1.47310688		3.36891010		5.24505201		-0.00010672		-0.00174555		 0.00035636
Si		4.05635599		2.17134938		3.85371273		-0.00008491		 0.00048756		 0.00054241
Si		7.13837199		7.65223385		1.94088444		-0.00008440		-0.00024418		-0.00072076
Si		7.45952626		7.08331617		-0.84623189		 0.00051591		-0.00008778		-0.00027210
Si		3.73500980		2.74017925		6.64063443		-0.00035106		 0.00040230		 0.00053271
Si		0.46889923		8.17417009		1.55061504		-0.00049533		 0.00016492		-0.00023925
Si		10.72594644		1.64935612		4.24405275		 0.00012616		 0.00014335		 0.00004463
Si		11.04746555		3.26248394		1.45714825		-0.00001754		-0.00014629		 0.00000925
Si		0.14728145		6.56111922		4.33749962		-0.00018260		 0.00024864		-0.00016227
O		3.10426647		1.69643262		0.88101533		 0.00027764		-0.00000412		-0.00035883
O		8.09039815		8.12736246		4.91351576		-0.00045960		-0.00020794		 0.00032646
O		8.41172352		6.60822198		2.12653613		-0.00024250		 0.00001905		 0.00040019
O		2.78276003		3.21550430		3.66794246		 0.00042307		-0.00020032		-0.00032684
O		3.63059069		4.18485880		0.93916637		 0.00030688		-0.00038977		 0.00004209
O		7.56393270		5.63877604		4.85549780		-0.00024673		 0.00029670		-0.00009882
O		7.88534951		9.09651960		2.06858244		-0.00012103		 0.00008560		-0.00004476
O		3.30921552		0.72724922		3.72606906		 0.00009169		-0.00018499		 0.00001669
O		5.08189251		2.47409075		2.55859055		-0.00038789		-0.00030161		 0.00032919
O		6.11284181		7.34967535		3.23600663		 0.00028340		 0.00026059		-0.00042384
O		6.43424504		7.38571263		0.44894099		 0.00036703		-0.00014380		-0.00006955
O		4.76042591		2.43784979		5.34559463		-0.00035267		 0.00015920		 0.00010177
O		0.82673173		3.22342115		1.39148413		 0.00010380		-0.00023896		-0.00040082
O		10.36798720		6.60020554		4.40285414		-0.00008112		 0.00021591		 0.00045380
O		10.68923381		8.13525033		1.61594149		 0.00029949		-0.00021117		 0.00048844
O		0.50532669		1.68846417		4.17837685		 0.00001649		 0.00021577		-0.00038836
O		1.13171734		-0.18863827		1.62111347		-0.00104948		-0.00145083		 0.00035989
O		10.06307401		10.01245598		4.17333343		 0.00094061		 0.00118297		-0.00031226
O		10.38453609		4.72302254		1.38638910		 0.00096320		-0.00121819		-0.00030713
O		0.81018556		5.10067477		4.40804694		-0.00093529		 0.00112764		 0.00039433
O		1.19756615		7.48485475		0.14644133		-0.00004512		-0.00051350		-0.00013140
O		9.99705049		2.33920739		5.64783537		 0.00011302		 0.00043895		 0.00014353
O		10.31852885		2.57263538		2.86095532		 0.00009837		-0.00039313		 0.00007426
O		0.87608778		7.25067355		2.93328970		-0.00003273		 0.00040861		 0.00002102
