# total energy = -22466.487787 eV

CRYSTAL
PRIMVEC
		9.98263449		-0.00000905		0.70390696
		-0.00000905		8.42981866		-0.00000905
		-0.19611514		0.00000000		5.46741452
PRIMECORD
   40 1
Ca		7.24185774		0.39408071		1.04674951		-0.00005291		 0.00025927		-0.00039647
Ca		2.54464712		8.03571441		5.12456111		 0.00004894		-0.00026213		 0.00039754
Ca		2.64271646		4.60899819		2.39085747		 0.00003384		 0.00025180		 0.00039978
Ca		7.14379112		3.82080236		3.78045224		-0.00004302		-0.00025291		-0.00039707
Mg		2.22379432		1.38853375		2.25732120		 0.00005622		-0.00016001		-0.00010868
Mg		7.56271779		7.04126952		3.91399123		-0.00005870		 0.00016168		 0.00010608
Mg		7.66077536		5.60344127		1.18028759		-0.00005133		-0.00019292		 0.00010487
Mg		2.12573494		2.82634661		4.99102212		 0.00005356		 0.00019575		-0.00009867
Si		4.82642138		1.44499641		3.23867364		-0.00000278		 0.00012834		-0.00009073
Si		4.96010974		6.98480867		2.93264874		-0.00006818		-0.00013705		 0.00008045
Si		5.05816912		5.65991841		0.19894330		-0.00006552		 0.00008735		 0.00008119
Si		4.72836381		2.76987218		5.97237999		-0.00001100		-0.00007596		-0.00009310
Si		0.31379961		7.13363365		1.42118792		 0.00028896		-0.00008851		-0.00004830
Si		9.47267719		1.29617414		4.75010821		-0.00016528		 0.00007673		 0.00005684
Si		9.57063698		2.91866910		2.01634754		 0.00008417		 0.00000255		 0.00015062
Si		0.21579636		5.51114051		4.15493954		 0.00017051		-0.00005969		-0.00013069
O		3.62633668		1.62937705		0.54764947		-0.00034183		 0.00003220		-0.00002992
O		6.16016185		6.80041717		5.62366296		 0.00037082		-0.00002838		 0.00003075
O		6.25822666		5.84427371		2.88996023		 0.00036063		 0.00005150		 0.00002669
O		3.52827096		2.58552956		3.28135220		-0.00032928		-0.00006217		-0.00002499
O		3.85614799		4.12862609		0.41279598		 0.00030213		 0.00046228		-0.00015617
O		5.93035416		4.30116994		5.75851464		-0.00026940		-0.00047123		 0.00015880
O		6.02840267		8.34352456		3.02480376		-0.00025992		 0.00048391		 0.00015785
O		3.75810310		0.08627418		3.14650686		 0.00028440		-0.00047607		-0.00015516
O		5.71289657		2.23006623		1.94626374		 0.00031161		 0.00003486		-0.00021975
O		4.07359834		6.19973070		4.22504778		-0.00028109		-0.00003492		 0.00022706
O		4.17165500		6.44496832		1.49133419		-0.00028134		 0.00005578		 0.00024258
O		5.61483990		1.98483042		4.67997733		 0.00031078		-0.00005391		-0.00023525
O		1.21097455		2.98266657		1.32341643		-0.00011351		-0.00002259		-0.00011130
O		8.57559550		5.44713036		4.84790958		-0.00004673		 0.00001941		 0.00010422
O		8.67367842		7.19755779		2.11420775		-0.00011291		-0.00000378		 0.00009558
O		1.11287081		1.23224186		4.05711463		 0.00001652		 0.00000089		-0.00009996
O		1.17688729		0.04665101		1.31461782		-0.00012887		 0.00003454		 0.00010803
O		8.60962120		8.38314230		4.85669823		 0.00011766		-0.00003369		-0.00010770
O		8.70770321		4.26152956		2.12301089		 0.00006765		 0.00010990		-0.00012684
O		1.07882700		4.16824655		4.04831693		-0.00013646		-0.00002699		 0.00012155
O		0.92543478		6.29378684		0.08494430		-0.00031695		 0.00007087		 0.00033286
O		8.86108819		2.13601100		6.08636813		 0.00028711		-0.00007610		-0.00034978
O		8.95913037		2.07891916		3.35257758		 0.00030179		-0.00005331		-0.00015879
O		0.82739260		6.35088140		2.81872941		-0.00033028		 0.00005272		 0.00015598
