# total energy = -22466.5076153 eV

CRYSTAL
PRIMVEC
		9.61819692		-0.00003621		0.46434648
		0.00007242		8.18752417		-0.00002716
		-0.31592254		0.00002716		5.26741564
PRIMECORD
   40 1
Ca		7.00487917		0.46559851		0.88385616		 0.00070230		 0.00028455		-0.00054000
Ca		2.29748211		7.72189669		4.84785073		-0.00073925		-0.00025649		 0.00055864
Ca		2.45543886		4.55938956		2.21417550		-0.00073756		 0.00025867		 0.00054627
Ca		6.84694506		3.62816177		3.51754497		 0.00069150		-0.00029265		-0.00053056
Mg		2.13956430		1.36550835		2.09710392		 0.00035164		-0.00020773		-0.00071111
Mg		7.16278160		6.82198232		3.63463466		-0.00034935		 0.00024532		 0.00072445
Mg		7.32071571		5.45926591		1.00092503		-0.00034620		-0.00022679		 0.00072591
Mg		1.98161661		2.72825373		4.73077824		 0.00034878		 0.00020399		-0.00069120
Si		4.66072341		1.38833549		3.05588361		-0.00001750		 0.00006613		-0.00050688
Si		4.64171935		6.79921131		2.67586492		-0.00028899		-0.00007493		 0.00046622
Si		4.79965165		5.48208400		0.04215982		-0.00028204		 0.00008567		 0.00045850
Si		4.50276757		2.70546280		5.68957151		-0.00002638		-0.00009781		-0.00049757
Si		0.27566113		6.94073867		1.47260534		 0.00090082		 0.00023071		 0.00013636
Si		9.02645844		1.24669225		4.25910608		-0.00007082		 0.00006502		-0.00014762
Si		9.18438621		2.84710514		1.62540369		 0.00010098		-0.00025112		-0.00018851
Si		0.11769262		5.34051680		4.10631226		 0.00085349		-0.00014945		 0.00015467
O		3.56636599		1.53395119		0.50504967		-0.00012683		-0.00018378		 0.00034724
O		5.73593283		6.65356845		5.22667171		 0.00025877		 0.00021766		-0.00034702
O		5.89389682		5.62773771		2.59297656		 0.00026913		-0.00022562		-0.00034876
O		3.40841286		2.55979460		3.13875477		-0.00014061		 0.00019761		 0.00035130
O		3.69756659		4.02326366		0.34917874		-0.00029038		-0.00065823		-0.00015363
O		5.60470779		4.16428495		5.38252091		 0.00042860		 0.00063923		 0.00015894
O		5.76272066		8.11704113		2.74881038		 0.00042042		-0.00065504		 0.00015529
O		3.53958631		0.07048756		2.98292277		-0.00028499		 0.00067019		-0.00015478
O		5.59456028		2.26973376		1.87389405		 0.00082434		-0.00013930		-0.00032787
O		3.70774216		5.91781122		3.85780650		-0.00070708		 0.00013823		 0.00036838
O		3.86571611		6.36347231		1.22411950		-0.00071210		-0.00013958		 0.00035769
O		5.43660806		1.82403918		4.50760731		 0.00082027		 0.00015120		-0.00032879
O		1.17169720		2.88600588		1.18165098		-0.00084880		 0.00036154		-0.00017742
O		8.13080441		5.30147665		4.55010842		 0.00029390		-0.00032309		 0.00016081
O		8.28879465		6.97978697		1.91639970		 0.00026866		 0.00030462		 0.00015621
O		1.01369700		1.20774625		3.81535336		-0.00076792		-0.00034698		-0.00016751
O		1.05655209		0.09422272		1.15031130		 0.00011489		-0.00035495		 0.00004230
O		8.24584993		8.09336391		4.58148160		-0.00035401		 0.00000878		-0.00002842
O		8.40379943		4.18786078		1.94777740		-0.00044530		 0.00014393		-0.00000388
O		0.89858087		3.99952760		3.78396571		 0.00014707		 0.00029352		 0.00004265
O		0.95468321		5.89753703		0.33251126		-0.00002619		 0.00089797		-0.00036936
O		8.34769799		2.28994187		5.39924905		-0.00010225		-0.00087679		 0.00033780
O		8.50567465		1.80379215		2.76554666		-0.00010881		 0.00090701		 0.00031408
O		0.79671741		6.38371029		2.96620007		-0.00002221		-0.00091122		-0.00034283
