# total energy = -22466.7624763 eV

CRYSTAL
PRIMVEC
		9.86352417		-0.00001811		0.62947320
		-0.00001811		8.34624136		0.00000905
		-0.23122267		0.00000000		5.41641897
PRIMECORD
   40 1
Ca		7.15540883		0.41865508		0.97547614		 0.00005408		 0.00017384		-0.00000291
Ca		2.47689266		7.92756908		5.07042417		-0.00006643		-0.00016158		 0.00000598
Ca		2.59251486		4.59179387		2.36220925		-0.00007392		 0.00015849		 0.00001374
Ca		7.03978935		3.75444387		3.68368834		 0.00005488		-0.00017455		-0.00000666
Mg		2.20088570		1.38163446		2.22300670		-0.00002564		 0.00019116		 0.00046930
Mg		7.43140493		6.96458427		3.82290357		 0.00000824		-0.00018036		-0.00047642
Mg		7.54701627		5.55475786		1.11469046		 0.00001129		 0.00017997		-0.00046914
Mg		2.08527527		2.79148260		4.93122071		-0.00002552		-0.00018528		 0.00046860
Si		4.78398634		1.42144684		3.19450858		 0.00005782		 0.00020657		 0.00005438
Si		4.84828165		6.92477008		2.85137181		-0.00001892		-0.00018009		-0.00003502
Si		4.96389842		5.59458472		0.14316052		-0.00002523		 0.00016703		-0.00003575
Si		4.66837229		2.75165664		5.90272078		 0.00005774		-0.00018957		 0.00005270
Si		0.29686779		7.06957644		1.43604933		-0.00013464		-0.00028871		-0.00003185
Si		9.33539568		1.27664229		4.60984736		 0.00017690		 0.00031744		 0.00003515
Si		9.45101064		2.89643131		1.90163426		 0.00015799		-0.00026212		 0.00004367
Si		0.18120575		5.44984264		4.14426424		 0.00003110		 0.00014329		-0.00005141
O		3.61502224		1.60006163		0.54642098		 0.00024008		 0.00037212		 0.00004392
O		6.01727291		6.74617793		5.49948205		-0.00024647		-0.00038396		-0.00004456
O		6.13288968		5.77317054		2.79127166		-0.00025342		 0.00038821		-0.00004205
O		3.49940547		2.57305362		3.25463227		 0.00024894		-0.00038415		 0.00004199
O		3.80583142		4.09648432		0.39760957		-0.00026559		 0.00010560		 0.00011227
O		5.82644473		4.24973441		5.64828531		 0.00026608		-0.00008283		-0.00011491
O		5.94204973		8.26961768		2.94007401		 0.00026539		 0.00008540		-0.00011256
O		3.69022732		0.07662550		3.10581996		-0.00027376		-0.00010953		 0.00011017
O		5.68450998		2.25045268		1.93657612		-0.00002125		 0.00011466		 0.00015706
O		3.94778608		6.09578144		4.10932962		 0.00001058		-0.00010947		-0.00017075
O		4.06340013		6.42357246		1.40112014		 0.00000949		 0.00011433		-0.00017098
O		5.56889683		1.92265442		4.64478651		-0.00002141		-0.00011786		 0.00015595
O		1.20539790		2.95561983		1.29266610		 0.00039050		 0.00018214		-0.00012591
O		8.42690450		5.39061339		4.75321972		-0.00047689		-0.00017916		 0.00013175
O		8.54248868		7.12872602		2.04501477		-0.00039519		 0.00018379		 0.00013079
O		1.08978747		1.21750357		4.00086653		 0.00038551		-0.00019345		-0.00012247
O		1.13493025		0.07168890		1.27608463		 0.00029641		-0.00043794		-0.00050776
O		8.49733503		8.27454432		4.76981478		-0.00029979		 0.00042117		 0.00050865
O		8.61295180		4.24480686		2.06160167		-0.00028081		-0.00045675		 0.00050460
O		1.01933702		4.10139467		3.98430407		 0.00021254		 0.00056840		-0.00050228
O		0.93088378		6.17405277		0.15130822		-0.00015568		-0.00007356		-0.00008070
O		8.70140323		2.17219312		5.89458756		 0.00014171		 0.00006733		 0.00007266
O		8.81702000		2.00090764		3.18637084		 0.00013958		-0.00008417		 0.00009099
O		0.81527335		6.34530656		2.85952585		-0.00015628		 0.00009418		-0.00010023
