# total energy = -12280.5513285 eV	

CRYSTAL	
PRIMVEC	
		3.14300099		0.00000000		-0.50288156	
		-1.57149890		2.72191873		0.25143919	
		-3.64352078		0.00000000		22.77199693	
PRIMCOORD
   22 1	
O		-2.44953779		1.81461175		15.30961413		 0.00029753		 0.00013755		 0.00062883	
O		0.37751782		0.90730603		7.21094457		-0.00029753		-0.00013755		-0.00062883	
O		-1.23182380		0.90730603		17.26933489		 0.00043665		 0.00012956		-0.00023289	
O		-0.84019585		1.81461175		5.25122286		-0.00043665		-0.00012956		 0.00023289	
O		-1.64504889		1.81461175		10.28155736		 0.00002995		 0.00027186		 0.00034404	
O		-0.42697108		0.90730603		12.23900134		-0.00002995		-0.00027186		-0.00034404	
O		-3.26714374		1.81461175		20.41965068		-0.00061227		 0.00076204		-0.00071662	
O		1.19512409		0.90730603		2.10090675		 0.00061227		-0.00076204		 0.00071662	
O		0.00000000		0.00000000		0.00000000		0.00000000		0.00000000		0.00000000	
H		-2.29140977		1.81461175		14.32130932		 0.00015927		 0.00040210		-0.00006364	
H		0.21939012		0.90730603		8.19924842		-0.00015927		-0.00040210		 0.00006364	
H		-1.48655578		1.81461175		9.29097545		 0.00022987		 0.00025002		-0.00035675	
H		-0.58546387		0.90730603		13.22958325		-0.00022987		-0.00025002		 0.00035675	
H		-3.10865095		1.81461175		19.42906876		 0.00033550		-0.00073865		 0.00083699	
H		1.03663098		0.90730603		3.09148898		-0.00033550		 0.00073865		-0.00083699	
H		-1.39031691		0.90730603		18.25991680		 0.00030970		 0.00069755		 0.00049174	
H		-0.68170306		1.81461175		4.26064062		-0.00030970		-0.00069755		-0.00049174	
Mg		-2.62661279		0.00000000		16.41633297		 0.00040161		-0.00078678		-0.00025870	
Mg		-1.01690608		0.00000000		6.35566459		-0.00040161		 0.00078678		 0.00025870	
Mg		-1.87417700		0.90730603		21.28403873		 0.00015677		-0.00018352		 0.00006606	
Mg		-0.19784297		1.81461175		1.23651996		-0.00015677		 0.00018352		-0.00006606	
Mg		-1.82175975		0.00000000		11.38599942		0.00000000		0.00000000		0.00000000	
