# total energy = -12280.8172231 eV	

CRYSTAL	
PRIMVEC	
		3.14300015		0.00000000		-0.12571988	
		-1.57149850		2.72191656		0.06285994	
		-0.91088092		0.00000000		22.77199785	
PRIMCOORD
   22 1	
O		-0.61238491		1.81461209		15.30961516		-0.00026100		 0.00014274		-0.00036083	
O		1.27300406		0.90730604		7.39952495		 0.00026100		-0.00014274		 0.00036083	
O		0.87066899		0.90730604		17.45791621		 0.00062428		-0.00009046		 0.00013263	
O		-0.21004889		1.81461209		5.25122295		-0.00062428		 0.00009046		-0.00013263	
O		-0.41126204		1.81461209		10.28155821		-0.00037401		 0.00014691		-0.00018664	
O		1.07188214		0.90730604		12.42758222		 0.00037401		-0.00014691		 0.00018664	
O		-0.81678603		1.81461209		20.41965206		-0.00055735		 0.00057948		-0.00013174	
O		1.47740613		0.90730604		2.28948710		 0.00055735		-0.00057948		 0.00013174	
O		0.00000000		0.00000000		0.00000000		0.00000000		0.00000000		0.00000000	
H		-0.57285210		1.81461209		14.32130995		 0.00051842		-0.00000600		-0.00035266	
H		1.23347188		0.90730604		8.38782891		-0.00051842		 0.00000600		 0.00035266	
H		-0.37163895		1.81461209		9.29097595		 0.00041200		-0.00001396		-0.00019336	
H		1.03225905		0.90730604		13.41816416		-0.00041200		 0.00001396		 0.00019336	
H		-0.77716294		1.81461209		19.42907012		-0.00045541		 0.00033960		-0.00000765	
H		1.43778304		0.90730604		3.28006904		 0.00045541		-0.00033960		 0.00000765	
H		0.83104590		0.90730604		18.44849815		-0.00033658		-0.00015227		 0.00003591	
H		-0.17042612		1.81461209		4.26064102		 0.00033658		 0.00015227		-0.00003591	
Mg		-0.65665298		0.00000000		16.41633418		 0.00006594		-0.00000613		-0.00005947	
Mg		-0.25422700		0.00000000		6.35566493		-0.00006594		 0.00000613		 0.00005947	
Mg		0.71008110		0.90730604		21.47262023		 0.00054878		-0.00054419		 0.00001836	
Mg		-0.04946100		1.81461209		1.23651988		-0.00054878		 0.00054419		-0.00001836	
Mg		-0.45544015		0.00000000		11.38600018		0.00000000		0.00000000		0.00000000	
