# total energy = -12280.817223 eV	

CRYSTAL	
PRIMVEC	
		3.14300015		0.00000000		0.12571988	
		-1.57149850		2.72191656		-0.06285994	
		0.91088092		0.00000000		22.77199785	
PRIMCOORD
   22 1	
O		0.61238491		1.81461209		15.30961516		 0.00026111		 0.00014275		-0.00036118	
O		1.86999514		0.90730604		7.52524514		-0.00026111		-0.00014275		 0.00036118	
O		2.27233116		0.90730604		17.58363609		-0.00062448		-0.00009044		 0.00013329	
O		0.21004889		1.81461209		5.25122295		 0.00062448		 0.00009044		-0.00013329	
O		0.41126204		1.81461209		10.28155821		 0.00037416		 0.00014689		-0.00018607	
O		2.07111801		0.90730604		12.55330210		-0.00037416		-0.00014689		 0.00018607	
O		0.81678603		1.81461209		20.41965206		 0.00055750		 0.00057965		-0.00013199	
O		1.66559402		0.90730604		2.41520698		-0.00055750		-0.00057965		 0.00013199	
O		0.00000000		0.00000000		0.00000000		0.00000000		0.00000000		0.00000000	
H		0.57285210		1.81461209		14.32130995		-0.00051847		-0.00000601		-0.00035225	
H		1.90952701		0.90730604		8.51354910		 0.00051847		 0.00000601		 0.00035225	
H		0.37163895		1.81461209		9.29097595		-0.00041207		-0.00001396		-0.00019371	
H		2.11074110		0.90730604		13.54388404		 0.00041207		 0.00001396		 0.00019371	
H		0.77716294		1.81461209		19.42907012		 0.00045541		 0.00033959		-0.00000684	
H		1.70521711		0.90730604		3.40578892		-0.00045541		-0.00033959		 0.00000684	
H		2.31195393		0.90730604		18.57421803		 0.00033665		-0.00015226		 0.00003518	
H		0.17042612		1.81461209		4.26064102		-0.00033665		 0.00015226		-0.00003518	
Mg		0.65665298		0.00000000		16.41633418		-0.00006595		-0.00000614		-0.00005937	
Mg		0.25422700		0.00000000		6.35566493		 0.00006595		 0.00000614		 0.00005937	
Mg		2.43291906		0.90730604		21.59834011		-0.00054912		-0.00054440		 0.00001730	
Mg		0.04946100		1.81461209		1.23651988		 0.00054912		 0.00054440		-0.00001730	
Mg		0.45544015		0.00000000		11.38600018		0.00000000		0.00000000		0.00000000	
