# total energy = -12280.8441978 eV	

CRYSTAL	
PRIMVEC	
		3.14300039		0.00000000		0.37715929	
		-1.57149861		2.72191912		-0.18858123	
		2.73264083		0.00000000		22.77199742	
PRIMCOORD
   22 1	
O		1.83715398		1.81461180		15.30961452		 0.00030218		 0.00237317		 0.00105424	
O		2.46698578		0.90730606		7.65096476		-0.00030218		-0.00237317		-0.00105424	
O		3.67399299		0.90730606		17.70935518		-0.00198708		 0.00086806		-0.00192573	
O		0.63014708		1.81461180		5.25122283		 0.00198708		-0.00086806		 0.00192573	
O		1.23378681		1.81461180		10.28155748		-0.00180548		-0.00057553		-0.00402878	
O		3.07035295		0.90730606		12.67902148		 0.00180548		 0.00057553		 0.00402878	
O		2.45035778		1.81461180		20.41965136		-0.00135984		-0.00107216		-0.00171802	
O		1.85378103		0.90730606		2.54092698		 0.00135984		 0.00107216		 0.00171802	
O		0.00000000		0.00000000		0.00000000		0.00000000		0.00000000		0.00000000	
H		1.71855702		1.81461180		14.32130936		 0.00064215		-0.00026737		 0.00088417	
H		2.58558305		0.90730606		8.63926866		-0.00064215		 0.00026737		-0.00088417	
H		1.11491698		1.81461180		9.29097566		-0.00024084		 0.00005646		 0.00088992	
H		3.18922278		0.90730606		13.66960363		 0.00024084		-0.00005646		-0.00088992	
H		2.33148795		1.81461180		19.42906921		-0.00048015		 0.00103300		 0.00245363	
H		1.97265086		0.90730606		3.53150880		 0.00048015		-0.00103300		-0.00245363	
H		3.79286283		0.90730606		18.69993733		-0.00089783		-0.00065327		 0.00091745	
H		0.51127693		1.81461180		4.26064069		 0.00089783		 0.00065327		-0.00091745	
Mg		1.96995983		0.00000000		16.41633336		-0.00051899		 0.00134710		-0.00033359	
Mg		0.76268005		0.00000000		6.35566469		 0.00051899		-0.00134710		 0.00033359	
Mg		4.15575784		0.90730606		21.72405902		-0.00093734		-0.00072428		 0.00057068	
Mg		0.14838192		1.81461180		1.23651994		 0.00093734		 0.00072428		-0.00057068	
Mg		1.36632010		0.00000000		11.38599966		0.00000000		0.00000000		0.00000000	
