# total energy = -92493.15679 eV

CRYSTAL
PRIMVEC
		17.57499983		0.00000000		0.00000000
		0.00000000		17.89999673		0.00000000
		0.00000000		0.00000000		5.27000430
PRIMECORD
   164 1
Mg		2.28474998		3.04299874		2.00259917		 0.00010293		 0.00012059		 0.00028476
Mg		15.29024985		14.85699095		3.26739985		-0.00010293		-0.00012059		-0.00028476
Mg		6.50274994		14.85699095		4.63759956		-0.00010293		-0.00012059		 0.00028476
Mg		11.07224989		3.04299874		0.63239946		 0.00010293		 0.00012059		-0.00028476
Mg		15.29024985		11.99299359		3.26739985		-0.00010293		 0.00012059		-0.00028476
Mg		2.28474998		5.90699611		2.00259917		 0.00010293		-0.00012059		 0.00028476
Mg		11.07224989		5.90699611		0.63239946		 0.00010293		-0.00012059		-0.00028476
Mg		6.50274994		11.99299359		4.63759956		-0.00010293		 0.00012059		 0.00028476
Mg		2.28474998		1.43199868		4.58489917		-0.00011788		-0.00003592		-0.00005910
Mg		15.29024985		16.46799101		0.68509986		 0.00011788		 0.00003592		 0.00005910
Mg		6.50274994		16.46799101		1.94990054		 0.00011788		 0.00003592		-0.00005910
Mg		11.07224989		1.43199868		3.32010025		-0.00011788		-0.00003592		 0.00005910
Mg		15.29024985		10.38199353		0.68509986		 0.00011788		-0.00003592		 0.00005910
Mg		2.28474998		7.51799616		4.58489917		-0.00011788		 0.00003592		-0.00005910
Mg		11.07224989		7.51799616		3.32010025		-0.00011788		 0.00003592		 0.00005910
Mg		6.50274994		10.38199353		1.94990054		 0.00011788		-0.00003592		-0.00005910
Mg		2.28474998		17.54199046		2.00259917		-0.00005896		 0.00038955		 0.00049200
Mg		15.29024985		0.35799923		3.26739985		 0.00005896		-0.00038955		-0.00049200
Mg		6.50274994		0.35799923		4.63759956		 0.00005896		-0.00038955		 0.00049200
Mg		11.07224989		17.54199046		0.63239946		-0.00005896		 0.00038955		-0.00049200
Mg		15.29024985		8.59199562		3.26739985		 0.00005896		 0.00038955		-0.00049200
Mg		2.28474998		9.30799408		2.00259917		-0.00005896		-0.00038955		 0.00049200
Mg		11.07224989		9.30799408		0.63239946		-0.00005896		-0.00038955		-0.00049200
Mg		6.50274994		8.59199562		4.63759956		 0.00005896		 0.00038955		 0.00049200
Mg		2.28474998		4.47499742		4.58489917		 0.00027759		0.00000000		-0.00021275
Mg		15.29024985		13.42499227		0.68509986		-0.00027759		0.00000000		 0.00021275
Mg		6.50274994		13.42499227		1.94990054		-0.00027759		0.00000000		-0.00021275
Mg		11.07224989		4.47499742		3.32010025		 0.00027759		0.00000000		 0.00021275
Si		0.52724999		14.67799134		1.52829914		-0.00010584		 0.00016966		 0.00028995
Si		17.04775159		3.22199836		3.74169989		 0.00010584		-0.00016966		-0.00028995
Si		8.26024992		3.22199836		4.16329953		 0.00010584		-0.00016966		 0.00028995
Si		9.31474815		14.67799134		1.10669950		-0.00010584		 0.00016966		-0.00028995
Si		17.04775159		5.72799649		3.74169989		 0.00010584		 0.00016966		-0.00028995
Si		0.52724999		12.17199320		1.52829914		-0.00010584		-0.00016966		 0.00028995
Si		9.31474815		12.17199320		1.10669950		-0.00010584		-0.00016966		-0.00028995
Si		8.26024992		5.72799649		4.16329953		 0.00010584		 0.00016966		 0.00028995
Si		0.52724999		16.46799101		4.16329953		 0.00005996		 0.00028068		-0.00004466
Si		17.04775159		1.43199868		1.10669950		-0.00005996		-0.00028068		 0.00004466
Si		8.26024992		1.43199868		1.52829914		-0.00005996		-0.00028068		-0.00004466
Si		9.31474815		16.46799101		3.74169989		 0.00005996		 0.00028068		 0.00004466
Si		17.04775159		7.51799616		1.10669950		-0.00005996		 0.00028068		 0.00004466
Si		0.52724999		10.38199353		4.16329953		 0.00005996		-0.00028068		-0.00004466
Si		9.31474815		10.38199353		3.74169989		 0.00005996		-0.00028068		 0.00004466
Si		8.26024992		7.51799616		1.52829914		-0.00005996		 0.00028068		-0.00004466
Si		3.86649996		16.46799101		0.21079982		 0.00015583		-0.00022083		 0.00014297
Si		13.70849811		1.43199868		5.05919921		-0.00015583		 0.00022083		-0.00014297
Si		4.92099995		1.43199868		2.84580021		-0.00015583		 0.00022083		 0.00014297
Si		12.65400163		16.46799101		2.42420057		 0.00015583		-0.00022083		-0.00014297
Si		13.70849811		7.51799616		5.05919921		-0.00015583		-0.00022083		-0.00014297
Si		3.86649996		10.38199353		0.21079982		 0.00015583		 0.00022083		 0.00014297
Si		12.65400163		10.38199353		2.42420057		 0.00015583		 0.00022083		-0.00014297
Si		4.92099995		7.51799616		2.84580021		-0.00015583		-0.00022083		 0.00014297
Si		3.86649996		14.67799134		2.84580021		 0.00006503		 0.00020365		 0.00003239
Si		13.70849811		3.22199836		2.42420057		-0.00006503		-0.00020365		-0.00003239
Si		4.92099995		3.22199836		0.21079982		-0.00006503		-0.00020365		 0.00003239
Si		12.65400163		14.67799134		5.05919921		 0.00006503		 0.00020365		-0.00003239
Si		13.70849811		5.72799649		2.42420057		-0.00006503		 0.00020365		-0.00003239
Si		3.86649996		12.17199320		2.84580021		 0.00006503		-0.00020365		 0.00003239
Si		12.65400163		12.17199320		5.05919921		 0.00006503		-0.00020365		-0.00003239
Si		4.92099995		5.72799649		0.21079982		-0.00006503		 0.00020365		 0.00003239
O		1.05449999		1.25299907		1.05400086		 0.00015175		 0.00035690		-0.00049486
O		16.52049984		16.64699063		4.21599992		-0.00015175		-0.00035690		 0.00049486
O		7.73299992		16.64699063		3.68899949		-0.00015175		-0.00035690		-0.00049486
O		9.84199990		1.25299907		1.58099953		 0.00015175		 0.00035690		 0.00049486
O		16.52049984		10.20299392		4.21599992		-0.00015175		 0.00035690		 0.00049486
O		1.05449999		7.69699578		1.05400086		 0.00015175		-0.00035690		-0.00049486
O		9.84199990		7.69699578		1.58099953		 0.00015175		-0.00035690		 0.00049486
O		7.73299992		10.20299392		3.68899949		-0.00015175		 0.00035690		-0.00049486
O		1.05449999		3.22199836		3.68899949		 0.00041607		 0.00025806		-0.00018721
O		16.52049984		14.67799134		1.58099953		-0.00041607		-0.00025806		 0.00018721
O		7.73299992		14.67799134		1.05400086		-0.00041607		-0.00025806		-0.00018721
O		9.84199990		3.22199836		4.21599992		 0.00041607		 0.00025806		 0.00018721
O		16.52049984		12.17199320		1.58099953		-0.00041607		 0.00025806		 0.00018721
O		1.05449999		5.72799649		3.68899949		 0.00041607		-0.00025806		-0.00018721
O		9.84199990		5.72799649		4.21599992		 0.00041607		-0.00025806		 0.00018721
O		7.73299992		12.17199320		1.05400086		-0.00041607		 0.00025806		-0.00018721
O		1.05449999		13.42499227		1.05400086		-0.00038318		0.00000000		 0.00017236
O		16.52049984		4.47499742		4.21599992		 0.00038318		-0.00000000		-0.00017236
O		7.73299992		4.47499742		3.68899949		 0.00038318		-0.00000000		 0.00017236
O		9.84199990		13.42499227		1.58099953		-0.00038318		0.00000000		-0.00017236
O		1.05449999		4.47499742		1.05400086		 0.00060154		-0.00000000		-0.00029787
O		16.52049984		13.42499227		4.21599992		-0.00060154		0.00000000		 0.00029787
O		7.73299992		13.42499227		3.68899949		-0.00060154		0.00000000		-0.00029787
O		9.84199990		4.47499742		1.58099953		 0.00060154		0.00000000		 0.00029787
O		1.05449999		0.00000000		3.68899949		-0.00021695		 0.00013736		-0.00022443
O		16.52049984		0.00000000		1.58099953		 0.00021695		-0.00013736		 0.00022443
O		7.73299992		0.00000000		1.05400086		 0.00021695		-0.00013736		-0.00022443
O		9.84199990		0.00000000		4.21599992		-0.00021695		 0.00013736		 0.00022443
O		16.52049984		8.94999485		1.58099953		 0.00021695		 0.00013736		 0.00022443
O		1.05449999		8.94999485		3.68899949		-0.00021695		-0.00013736		-0.00022443
O		9.84199990		8.94999485		4.21599992		-0.00021695		-0.00013736		 0.00022443
O		7.73299992		8.94999485		1.05400086		 0.00021695		 0.00013736		-0.00022443
O		0.87874999		15.57299118		0.26350021		-0.00025244		-0.00007628		 0.00025911
O		16.69624984		2.32699852		5.00650057		 0.00025244		 0.00007628		-0.00025911
O		7.90874992		2.32699852		2.89850061		 0.00025244		 0.00007628		 0.00025911
O		9.66624991		15.57299118		2.37150018		-0.00025244		-0.00007628		-0.00025911
O		16.69624984		6.62299633		5.00650057		 0.00025244		-0.00007628		-0.00025911
O		0.87874999		11.27699337		0.26350021		-0.00025244		 0.00007628		 0.00025911
O		9.66624991		11.27699337		2.37150018		-0.00025244		 0.00007628		-0.00025911
O		7.90874992		6.62299633		2.89850061		 0.00025244		-0.00007628		 0.00025911
O		0.87874999		15.57299118		2.84580021		 0.00005169		 0.00022349		 0.00028384
O		16.69624984		2.32699852		2.42420057		-0.00005169		-0.00022349		-0.00028384
O		7.90874992		2.32699852		0.21079982		-0.00005169		-0.00022349		 0.00028384
O		9.66624991		15.57299118		5.05919921		 0.00005169		 0.00022349		-0.00028384
O		16.69624984		6.62299633		2.42420057		-0.00005169		 0.00022349		-0.00028384
O		0.87874999		11.27699337		2.84580021		 0.00005169		-0.00022349		 0.00028384
O		9.66624991		11.27699337		5.05919921		 0.00005169		-0.00022349		-0.00028384
O		7.90874992		6.62299633		0.21079982		-0.00005169		 0.00022349		 0.00028384
O		3.33924997		3.22199836		0.26350021		-0.00004932		-0.00020788		-0.00004261
O		14.23574986		14.67799134		5.00650057		 0.00004932		 0.00020788		 0.00004261
O		5.44824995		14.67799134		2.89850061		 0.00004932		 0.00020788		-0.00004261
O		12.12674988		3.22199836		2.37150018		-0.00004932		-0.00020788		 0.00004261
O		14.23574986		12.17199320		5.00650057		 0.00004932		-0.00020788		 0.00004261
O		3.33924997		5.72799649		0.26350021		-0.00004932		 0.00020788		-0.00004261
O		12.12674988		5.72799649		2.37150018		-0.00004932		 0.00020788		 0.00004261
O		5.44824995		12.17199320		2.89850061		 0.00004932		-0.00020788		-0.00004261
O		3.33924997		1.25299907		2.95119924		-0.00008902		-0.00001368		-0.00023373
O		14.23574986		16.64699063		2.31879978		 0.00008902		 0.00001368		 0.00023373
O		5.44824995		16.64699063		0.31620061		 0.00008902		 0.00001368		-0.00023373
O		12.12674988		1.25299907		4.95380017		-0.00008902		-0.00001368		 0.00023373
O		14.23574986		10.20299392		2.31879978		 0.00008902		-0.00001368		 0.00023373
O		3.33924997		7.69699578		2.95119924		-0.00008902		 0.00001368		-0.00023373
O		12.12674988		7.69699578		4.95380017		-0.00008902		 0.00001368		 0.00023373
O		5.44824995		10.20299392		0.31620061		 0.00008902		-0.00001368		-0.00023373
O		3.33924997		0.00000000		0.26350021		-0.00021323		-0.00012744		 0.00019960
O		14.23574986		0.00000000		5.00650057		 0.00021323		 0.00012744		-0.00019960
O		5.44824995		0.00000000		2.89850061		 0.00021323		 0.00012744		 0.00019960
O		12.12674988		0.00000000		2.37150018		-0.00021323		-0.00012744		-0.00019960
O		14.23574986		8.94999485		5.00650057		 0.00021323		-0.00012744		-0.00019960
O		3.33924997		8.94999485		0.26350021		-0.00021323		 0.00012744		 0.00019960
O		12.12674988		8.94999485		2.37150018		-0.00021323		 0.00012744		-0.00019960
O		5.44824995		8.94999485		2.89850061		 0.00021323		-0.00012744		 0.00019960
O		3.33924997		13.42499227		2.37150018		 0.00012620		0.00000000		-0.00026622
O		14.23574986		4.47499742		2.89850061		-0.00012620		0.00000000		 0.00026622
O		5.44824995		4.47499742		5.00650057		-0.00012620		0.00000000		-0.00026622
O		12.12674988		13.42499227		0.26350021		 0.00012620		0.00000000		 0.00026622
O		3.33924997		4.47499742		2.89850061		-0.00041061		0.00000000		 0.00039238
O		14.23574986		13.42499227		2.37150018		 0.00041061		0.00000000		-0.00039238
O		5.44824995		13.42499227		0.26350021		 0.00041061		0.00000000		 0.00039238
O		12.12674988		4.47499742		5.00650057		-0.00041061		0.00000000		-0.00039238
O		3.51499997		15.57299118		1.58099953		 0.00008730		 0.00022585		 0.00031828
O		14.05999986		2.32699852		3.68899949		-0.00008730		-0.00022585		-0.00031828
O		5.27249995		2.32699852		4.21599992		-0.00008730		-0.00022585		 0.00031828
O		12.30249988		15.57299118		1.05400086		 0.00008730		 0.00022585		-0.00031828
O		14.05999986		6.62299633		3.68899949		-0.00008730		 0.00022585		-0.00031828
O		3.51499997		11.27699337		1.58099953		 0.00008730		-0.00022585		 0.00031828
O		12.30249988		11.27699337		1.05400086		 0.00008730		-0.00022585		-0.00031828
O		5.27249995		6.62299633		4.21599992		-0.00008730		 0.00022585		 0.00031828
O		3.51499997		15.57299118		4.21599992		-0.00016697		 0.00001205		 0.00012156
O		14.05999986		2.32699852		1.05400086		 0.00016697		-0.00001205		-0.00012156
O		5.27249995		2.32699852		1.58099953		 0.00016697		-0.00001205		 0.00012156
O		12.30249988		15.57299118		3.68899949		-0.00016697		 0.00001205		-0.00012156
O		14.05999986		6.62299633		1.05400086		 0.00016697		 0.00001205		-0.00012156
O		3.51499997		11.27699337		4.21599992		-0.00016697		-0.00001205		 0.00012156
O		12.30249988		11.27699337		3.68899949		-0.00016697		-0.00001205		-0.00012156
O		5.27249995		6.62299633		1.58099953		 0.00016697		 0.00001205		 0.00012156
H		17.04775159		0.00000000		0.79050064		 0.00016453		 0.00023717		-0.00020924
H		0.52724824		0.00000000		4.47950014		-0.00016453		-0.00023717		 0.00020924
H		9.31474815		0.00000000		3.42549928		-0.00016453		-0.00023717		-0.00020924
H		8.26025168		0.00000000		1.84449975		 0.00016453		 0.00023717		 0.00020924
H		0.52724824		8.94999485		4.47950014		-0.00016453		 0.00023717		 0.00020924
H		17.04775159		8.94999485		0.79050064		 0.00016453		-0.00023717		-0.00020924
H		8.26025168		8.94999485		1.84449975		 0.00016453		-0.00023717		 0.00020924
H		9.31474815		8.94999485		3.42549928		-0.00016453		 0.00023717		-0.00020924
