# total energy = -92497.0282019 eV

CRYSTAL
PRIMVEC
		20.34999977		0.00000000		0.00000000
		0.00000000		17.89998190		0.00000000
		0.00000000		0.00000000		5.26999874
PRIMECORD
   164 1
Mg		2.64549997		3.04299855		2.00260074		-0.00048790		-0.00019013		-0.00038237
Mg		17.70449980		14.85699149		3.26740003		 0.00048790		 0.00019013		 0.00038237
Mg		7.52949992		14.85699149		4.63760011		 0.00048790		 0.00019013		-0.00038237
Mg		12.82049986		3.04299855		0.63240066		-0.00048790		-0.00019013		 0.00038237
Mg		17.70449980		11.99299357		3.26740003		 0.00048790		-0.00019013		 0.00038237
Mg		2.64549997		5.90699647		2.00260074		-0.00048790		 0.00019013		-0.00038237
Mg		12.82049986		5.90699647		0.63240066		-0.00048790		 0.00019013		 0.00038237
Mg		7.52949992		11.99299357		4.63760011		 0.00048790		-0.00019013		-0.00038237
Mg		2.64549997		1.43199896		4.58489972		 0.00015843		-0.00020582		 0.00003132
Mg		17.70449980		16.46799108		0.68509902		-0.00015843		 0.00020582		-0.00003132
Mg		7.52949992		16.46799108		1.94990035		-0.00015843		 0.00020582		 0.00003132
Mg		12.82049986		1.43199896		3.32010043		 0.00015843		-0.00020582		-0.00003132
Mg		17.70449980		10.38199398		0.68509902		-0.00015843		-0.00020582		-0.00003132
Mg		2.64549997		7.51799606		4.58489972		 0.00015843		 0.00020582		 0.00003132
Mg		12.82049986		7.51799606		3.32010043		 0.00015843		 0.00020582		-0.00003132
Mg		7.52949992		10.38199398		1.94990035		-0.00015843		-0.00020582		 0.00003132
Mg		2.64549997		17.54199081		2.00260074		-0.00061385		-0.00024347		-0.00013819
Mg		17.70449980		0.35799923		3.26740003		 0.00061385		 0.00024347		 0.00013819
Mg		7.52949992		0.35799923		4.63760011		 0.00061385		 0.00024347		-0.00013819
Mg		12.82049986		17.54199081		0.63240066		-0.00061385		-0.00024347		 0.00013819
Mg		17.70449980		8.59199579		3.26740003		 0.00061385		-0.00024347		 0.00013819
Mg		2.64549997		9.30799425		2.00260074		-0.00061385		 0.00024347		-0.00013819
Mg		12.82049986		9.30799425		0.63240066		-0.00061385		 0.00024347		 0.00013819
Mg		7.52949992		8.59199579		4.63760011		 0.00061385		-0.00024347		-0.00013819
Mg		2.64549997		4.47499751		4.58489972		 0.00021201		0.00000000		-0.00031851
Mg		17.70449980		13.42499253		0.68509902		-0.00021201		0.00000000		 0.00031851
Mg		7.52949992		13.42499253		1.94990035		-0.00021201		0.00000000		-0.00031851
Mg		12.82049986		4.47499751		3.32010043		 0.00021201		0.00000000		 0.00031851
Si		0.61049999		14.67799086		1.52829923		 0.00028425		-0.00037491		-0.00030569
Si		19.73949978		3.22199715		3.74169951		-0.00028425		 0.00037491		 0.00030569
Si		9.56449989		3.22199715		4.16330063		-0.00028425		 0.00037491		-0.00030569
Si		10.78549988		14.67799086		1.10670014		 0.00028425		-0.00037491		 0.00030569
Si		19.73949978		5.72799787		3.74169951		-0.00028425		-0.00037491		 0.00030569
Si		0.61049999		12.17199217		1.52829923		 0.00028425		 0.00037491		-0.00030569
Si		10.78549988		12.17199217		1.10670014		 0.00028425		 0.00037491		 0.00030569
Si		9.56449989		5.72799787		4.16330063		-0.00028425		-0.00037491		-0.00030569
Si		0.61049999		16.46799108		4.16330063		 0.00008439		 0.00003907		-0.00016238
Si		19.73949978		1.43199896		1.10670014		-0.00008439		-0.00003907		 0.00016238
Si		9.56449989		1.43199896		1.52829923		-0.00008439		-0.00003907		-0.00016238
Si		10.78549988		16.46799108		3.74169951		 0.00008439		 0.00003907		 0.00016238
Si		19.73949978		7.51799606		1.10670014		-0.00008439		 0.00003907		 0.00016238
Si		0.61049999		10.38199398		4.16330063		 0.00008439		-0.00003907		-0.00016238
Si		10.78549988		10.38199398		3.74169951		 0.00008439		-0.00003907		 0.00016238
Si		9.56449989		7.51799606		1.52829923		-0.00008439		 0.00003907		-0.00016238
Si		4.47699995		16.46799108		0.21079954		-0.00004940		 0.00003437		-0.00009603
Si		15.87299982		1.43199896		5.05919920		 0.00004940		-0.00003437		 0.00009603
Si		5.69799994		1.43199896		2.84580095		 0.00004940		-0.00003437		-0.00009603
Si		14.65199984		16.46799108		2.42419983		-0.00004940		 0.00003437		 0.00009603
Si		15.87299982		7.51799606		5.05919920		 0.00004940		 0.00003437		 0.00009603
Si		4.47699995		10.38199398		0.21079954		-0.00004940		-0.00003437		-0.00009603
Si		14.65199984		10.38199398		2.42419983		-0.00004940		-0.00003437		 0.00009603
Si		5.69799994		7.51799606		2.84580095		 0.00004940		 0.00003437		-0.00009603
Si		4.47699995		14.67799086		2.84580095		-0.00005455		 0.00008679		-0.00024811
Si		15.87299982		3.22199715		2.42419983		 0.00005455		-0.00008679		 0.00024811
Si		5.69799994		3.22199715		0.21079954		 0.00005455		-0.00008679		-0.00024811
Si		14.65199984		14.67799086		5.05919920		-0.00005455		 0.00008679		 0.00024811
Si		15.87299982		5.72799787		2.42419983		 0.00005455		 0.00008679		 0.00024811
Si		4.47699995		12.17199217		2.84580095		-0.00005455		-0.00008679		-0.00024811
Si		14.65199984		12.17199217		5.05919920		-0.00005455		-0.00008679		 0.00024811
Si		5.69799994		5.72799787		0.21079954		 0.00005455		 0.00008679		-0.00024811
O		1.22099999		1.25299833		1.05399975		-0.00003901		-0.00023338		-0.00028543
O		19.12899979		16.64699171		4.21599899		 0.00003901		 0.00023338		 0.00028543
O		8.95399990		16.64699171		3.68899912		 0.00003901		 0.00023338		-0.00028543
O		11.39599987		1.25299833		1.58099962		-0.00003901		-0.00023338		 0.00028543
O		19.12899979		10.20299335		4.21599899		 0.00003901		-0.00023338		 0.00028543
O		1.22099999		7.69699669		1.05399975		-0.00003901		 0.00023338		-0.00028543
O		11.39599987		7.69699669		1.58099962		-0.00003901		 0.00023338		 0.00028543
O		8.95399990		10.20299335		3.68899912		 0.00003901		-0.00023338		-0.00028543
O		1.22099999		3.22199715		3.68899912		-0.00023409		-0.00020441		-0.00009227
O		19.12899979		14.67799086		1.58099962		 0.00023409		 0.00020441		 0.00009227
O		8.95399990		14.67799086		1.05399975		 0.00023409		 0.00020441		-0.00009227
O		11.39599987		3.22199715		4.21599899		-0.00023409		-0.00020441		 0.00009227
O		19.12899979		12.17199217		1.58099962		 0.00023409		-0.00020441		 0.00009227
O		1.22099999		5.72799787		3.68899912		-0.00023409		 0.00020441		-0.00009227
O		11.39599987		5.72799787		4.21599899		-0.00023409		 0.00020441		 0.00009227
O		8.95399990		12.17199217		1.05399975		 0.00023409		-0.00020441		-0.00009227
O		1.22099999		13.42499253		1.05399975		 0.00006584		0.00000000		 0.00000163
O		19.12899979		4.47499751		4.21599899		-0.00006584		-0.00000000		-0.00000163
O		8.95399990		4.47499751		3.68899912		-0.00006584		0.00000000		 0.00000163
O		11.39599987		13.42499253		1.58099962		 0.00006584		0.00000000		-0.00000163
O		1.22099999		4.47499751		1.05399975		-0.00029805		0.00000000		-0.00023544
O		19.12899979		13.42499253		4.21599899		 0.00029805		0.00000000		 0.00023544
O		8.95399990		13.42499253		3.68899912		 0.00029805		0.00000000		-0.00023544
O		11.39599987		4.47499751		1.58099962		-0.00029805		0.00000000		 0.00023544
O		1.22099999		0.00000000		3.68899912		-0.00022008		 0.00037064		-0.00012339
O		19.12899979		0.00000000		1.58099962		 0.00022008		-0.00037064		 0.00012339
O		8.95399990		0.00000000		1.05399975		 0.00022008		-0.00037064		-0.00012339
O		11.39599987		0.00000000		4.21599899		-0.00022008		 0.00037064		 0.00012339
O		19.12899979		8.94999502		1.58099962		 0.00022008		 0.00037064		 0.00012339
O		1.22099999		8.94999502		3.68899912		-0.00022008		-0.00037064		-0.00012339
O		11.39599987		8.94999502		4.21599899		-0.00022008		-0.00037064		 0.00012339
O		8.95399990		8.94999502		1.05399975		 0.00022008		 0.00037064		-0.00012339
O		1.01749999		15.57298995		0.26349994		 0.00020373		 0.00008706		-0.00007288
O		19.33249978		2.32699805		5.00650084		-0.00020373		-0.00008706		 0.00007288
O		9.15749990		2.32699805		2.89849931		-0.00020373		-0.00008706		-0.00007288
O		11.19249988		15.57298995		2.37149943		 0.00020373		 0.00008706		 0.00007288
O		19.33249978		6.62299493		5.00650084		-0.00020373		 0.00008706		 0.00007288
O		1.01749999		11.27699307		0.26349994		 0.00020373		-0.00008706		-0.00007288
O		11.19249988		11.27699307		2.37149943		 0.00020373		-0.00008706		 0.00007288
O		9.15749990		6.62299493		2.89849931		-0.00020373		 0.00008706		-0.00007288
O		1.01749999		15.57298995		2.84580095		-0.00015054		 0.00017678		-0.00009937
O		19.33249978		2.32699805		2.42419983		 0.00015054		-0.00017678		 0.00009937
O		9.15749990		2.32699805		0.21079954		 0.00015054		-0.00017678		-0.00009937
O		11.19249988		15.57298995		5.05919920		-0.00015054		 0.00017678		 0.00009937
O		19.33249978		6.62299493		2.42419983		 0.00015054		 0.00017678		 0.00009937
O		1.01749999		11.27699307		2.84580095		-0.00015054		-0.00017678		-0.00009937
O		11.19249988		11.27699307		5.05919920		-0.00015054		-0.00017678		 0.00009937
O		9.15749990		6.62299493		0.21079954		 0.00015054		 0.00017678		-0.00009937
O		3.86649996		3.22199715		0.26349994		-0.00009099		 0.00005343		 0.00009635
O		16.48349982		14.67799086		5.00650084		 0.00009099		-0.00005343		-0.00009635
O		6.30849993		14.67799086		2.89849931		 0.00009099		-0.00005343		 0.00009635
O		14.04149984		3.22199715		2.37149943		-0.00009099		 0.00005343		-0.00009635
O		16.48349982		12.17199217		5.00650084		 0.00009099		 0.00005343		-0.00009635
O		3.86649996		5.72799787		0.26349994		-0.00009099		-0.00005343		 0.00009635
O		14.04149984		5.72799787		2.37149943		-0.00009099		-0.00005343		-0.00009635
O		6.30849993		12.17199217		2.89849931		 0.00009099		 0.00005343		 0.00009635
O		3.86649996		1.25299833		2.95119970		-0.00000616		 0.00009232		 0.00067263
O		16.48349982		16.64699171		2.31879904		 0.00000616		-0.00009232		-0.00067263
O		6.30849993		16.64699171		0.31620033		 0.00000616		-0.00009232		 0.00067263
O		14.04149984		1.25299833		4.95380044		-0.00000616		 0.00009232		-0.00067263
O		16.48349982		10.20299335		2.31879904		 0.00000616		 0.00009232		-0.00067263
O		3.86649996		7.69699669		2.95119970		-0.00000616		-0.00009232		 0.00067263
O		14.04149984		7.69699669		4.95380044		-0.00000616		-0.00009232		-0.00067263
O		6.30849993		10.20299335		0.31620033		 0.00000616		 0.00009232		 0.00067263
O		3.86649996		0.00000000		0.26349994		-0.00016511		-0.00019348		-0.00057644
O		16.48349982		0.00000000		5.00650084		 0.00016511		 0.00019348		 0.00057644
O		6.30849993		0.00000000		2.89849931		 0.00016511		 0.00019348		-0.00057644
O		14.04149984		0.00000000		2.37149943		-0.00016511		-0.00019348		 0.00057644
O		16.48349982		8.94999502		5.00650084		 0.00016511		-0.00019348		 0.00057644
O		3.86649996		8.94999502		0.26349994		-0.00016511		 0.00019348		-0.00057644
O		14.04149984		8.94999502		2.37149943		-0.00016511		 0.00019348		 0.00057644
O		6.30849993		8.94999502		2.89849931		 0.00016511		-0.00019348		-0.00057644
O		3.86649996		13.42499253		2.37149943		 0.00090682		0.00000000		 0.00014091
O		16.48349982		4.47499751		2.89849931		-0.00090682		0.00000000		-0.00014091
O		6.30849993		4.47499751		5.00650084		-0.00090682		0.00000000		 0.00014091
O		14.04149984		13.42499253		0.26349994		 0.00090682		-0.00000000		-0.00014091
O		3.86649996		4.47499751		2.89849931		 0.00018903		0.00000000		 0.00029924
O		16.48349982		13.42499253		2.37149943		-0.00018903		-0.00000000		-0.00029924
O		6.30849993		13.42499253		0.26349994		-0.00018903		0.00000000		 0.00029924
O		14.04149984		4.47499751		5.00650084		 0.00018903		0.00000000		-0.00029924
O		4.06999995		15.57298995		1.58099962		-0.00051381		 0.00011873		-0.00011727
O		16.27999982		2.32699805		3.68899912		 0.00051381		-0.00011873		 0.00011727
O		6.10499993		2.32699805		4.21599899		 0.00051381		-0.00011873		-0.00011727
O		14.24499984		15.57298995		1.05399975		-0.00051381		 0.00011873		 0.00011727
O		16.27999982		6.62299493		3.68899912		 0.00051381		 0.00011873		 0.00011727
O		4.06999995		11.27699307		1.58099962		-0.00051381		-0.00011873		-0.00011727
O		14.24499984		11.27699307		1.05399975		-0.00051381		-0.00011873		 0.00011727
O		6.10499993		6.62299493		4.21599899		 0.00051381		 0.00011873		-0.00011727
O		4.06999995		15.57298995		4.21599899		-0.00025390		 0.00008971		 0.00000440
O		16.27999982		2.32699805		1.05399975		 0.00025390		-0.00008971		-0.00000440
O		6.10499993		2.32699805		1.58099962		 0.00025390		-0.00008971		 0.00000440
O		14.24499984		15.57298995		3.68899912		-0.00025390		 0.00008971		-0.00000440
O		16.27999982		6.62299493		1.05399975		 0.00025390		 0.00008971		-0.00000440
O		4.06999995		11.27699307		4.21599899		-0.00025390		-0.00008971		 0.00000440
O		14.24499984		11.27699307		3.68899912		-0.00025390		-0.00008971		-0.00000440
O		6.10499993		6.62299493		1.58099962		 0.00025390		 0.00008971		 0.00000440
H		19.73949978		0.00000000		0.79049981		-0.00048684		 0.00018651		 0.00028558
H		0.61049999		0.00000000		4.47950097		 0.00048684		-0.00018651		-0.00028558
H		10.78549988		0.00000000		3.42549918		 0.00048684		-0.00018651		 0.00028558
H		9.56449989		0.00000000		1.84449956		-0.00048684		 0.00018651		-0.00028558
H		0.61049999		8.94999502		4.47950097		 0.00048684		 0.00018651		-0.00028558
H		19.73949978		8.94999502		0.79049981		-0.00048684		-0.00018651		 0.00028558
H		9.56449989		8.94999502		1.84449956		-0.00048684		-0.00018651		-0.00028558
H		10.78549988		8.94999502		3.42549918		 0.00048684		 0.00018651		 0.00028558
