# total energy = -92483.5415178 eV

CRYSTAL
PRIMVEC
		16.64999967		0.00000000		0.00000000
		0.00000000		17.89998175		0.00000000
		0.00000000		0.00000000		5.27000795
PRIMECORD
   164 1
Mg		2.16449996		3.04299723		2.00260036		-0.00026690		-0.00023089		 0.00017744
Mg		14.48549971		14.85699118		3.26739927		 0.00026690		 0.00023089		-0.00017744
Mg		6.16049988		14.85699118		4.63759933		 0.00026690		 0.00023089		 0.00017744
Mg		10.48949979		3.04299723		0.63240029		-0.00026690		-0.00023089		-0.00017744
Mg		14.48549971		11.99299310		3.26739927		 0.00026690		-0.00023089		-0.00017744
Mg		2.16449996		5.90699531		2.00260036		-0.00026690		 0.00023089		 0.00017744
Mg		10.48949979		5.90699531		0.63240029		-0.00026690		 0.00023089		-0.00017744
Mg		6.16049988		11.99299310		4.63759933		 0.00026690		-0.00023089		 0.00017744
Mg		2.16449996		1.43199821		4.58490042		-0.00006152		-0.00061958		 0.00009522
Mg		14.48549971		16.46799020		0.68509920		 0.00006152		 0.00061958		-0.00009522
Mg		6.16049988		16.46799020		1.94989978		 0.00006152		 0.00061958		 0.00009522
Mg		10.48949979		1.43199821		3.32009984		-0.00006152		-0.00061958		-0.00009522
Mg		14.48549971		10.38199407		0.68509920		 0.00006152		-0.00061958		-0.00009522
Mg		2.16449996		7.51799600		4.58490042		-0.00006152		 0.00061958		 0.00009522
Mg		10.48949979		7.51799600		3.32009984		-0.00006152		 0.00061958		-0.00009522
Mg		6.16049988		10.38199407		1.94989978		 0.00006152		-0.00061958		 0.00009522
Mg		2.16449996		17.54199010		2.00260036		 0.00022452		 0.00078569		 0.00038345
Mg		14.48549971		0.35799997		3.26739927		-0.00022452		-0.00078569		-0.00038345
Mg		6.16049988		0.35799997		4.63759933		-0.00022452		-0.00078569		 0.00038345
Mg		10.48949979		17.54199010		0.63240029		 0.00022452		 0.00078569		-0.00038345
Mg		14.48549971		8.59199423		3.26739927		-0.00022452		 0.00078569		-0.00038345
Mg		2.16449996		9.30799417		2.00260036		 0.00022452		-0.00078569		 0.00038345
Mg		10.48949979		9.30799417		0.63240029		 0.00022452		-0.00078569		-0.00038345
Mg		6.16049988		8.59199423		4.63759933		-0.00022452		 0.00078569		 0.00038345
Mg		2.16449996		4.47499710		4.58490042		-0.00022912		0.00000000		 0.00016731
Mg		14.48549971		13.42499297		0.68509920		 0.00022912		0.00000000		-0.00016731
Mg		6.16049988		13.42499297		1.94989978		 0.00022912		0.00000000		 0.00016731
Mg		10.48949979		4.47499710		3.32009984		-0.00022912		0.00000000		-0.00016731
Si		0.49949999		14.67799202		1.52830014		-0.00020314		 0.00004706		 0.00034785
Si		16.15049968		3.22199805		3.74169948		 0.00020314		-0.00004706		-0.00034785
Si		7.82549984		3.22199805		4.16329912		 0.00020314		-0.00004706		 0.00034785
Si		8.82449983		14.67799202		1.10670050		-0.00020314		 0.00004706		-0.00034785
Si		16.15049968		5.72799616		3.74169948		 0.00020314		 0.00004706		-0.00034785
Si		0.49949999		12.17199225		1.52830014		-0.00020314		-0.00004706		 0.00034785
Si		8.82449983		12.17199225		1.10670050		-0.00020314		-0.00004706		-0.00034785
Si		7.82549984		5.72799616		4.16329912		 0.00020314		 0.00004706		 0.00034785
Si		0.49949999		16.46799020		4.16329912		-0.00037052		 0.00021681		 0.00004917
Si		16.15049968		1.43199821		1.10670050		 0.00037052		-0.00021681		-0.00004917
Si		7.82549984		1.43199821		1.52830014		 0.00037052		-0.00021681		 0.00004917
Si		8.82449983		16.46799020		3.74169948		-0.00037052		 0.00021681		-0.00004917
Si		16.15049968		7.51799600		1.10670050		 0.00037052		 0.00021681		-0.00004917
Si		0.49949999		10.38199407		4.16329912		-0.00037052		-0.00021681		 0.00004917
Si		8.82449983		10.38199407		3.74169948		-0.00037052		-0.00021681		-0.00004917
Si		7.82549984		7.51799600		1.52830014		 0.00037052		 0.00021681		 0.00004917
Si		3.66299993		16.46799020		0.21080065		 0.00014164		-0.00010111		 0.00006221
Si		12.98699974		1.43199821		5.05920063		-0.00014164		 0.00010111		-0.00006221
Si		4.66199991		1.43199821		2.84579963		-0.00014164		 0.00010111		 0.00006221
Si		11.98799976		16.46799020		2.42419999		 0.00014164		-0.00010111		-0.00006221
Si		12.98699974		7.51799600		5.05920063		-0.00014164		-0.00010111		-0.00006221
Si		3.66299993		10.38199407		0.21080065		 0.00014164		 0.00010111		 0.00006221
Si		11.98799976		10.38199407		2.42419999		 0.00014164		 0.00010111		-0.00006221
Si		4.66199991		7.51799600		2.84579963		-0.00014164		-0.00010111		 0.00006221
Si		3.66299993		14.67799202		2.84579963		-0.00008575		-0.00009522		-0.00022452
Si		12.98699974		3.22199805		2.42419999		 0.00008575		 0.00009522		 0.00022452
Si		4.66199991		3.22199805		0.21080065		 0.00008575		 0.00009522		-0.00022452
Si		11.98799976		14.67799202		5.05920063		-0.00008575		-0.00009522		 0.00022452
Si		12.98699974		5.72799616		2.42419999		 0.00008575		-0.00009522		 0.00022452
Si		3.66299993		12.17199225		2.84579963		-0.00008575		 0.00009522		-0.00022452
Si		11.98799976		12.17199225		5.05920063		-0.00008575		 0.00009522		 0.00022452
Si		4.66199991		5.72799616		0.21080065		 0.00008575		-0.00009522		-0.00022452
O		0.99899998		1.25299906		1.05399992		 0.00040130		 0.00043326		-0.00033268
O		15.65099969		16.64699102		4.21599970		-0.00040130		-0.00043326		 0.00033268
O		7.32599985		16.64699102		3.68900057		-0.00040130		-0.00043326		-0.00033268
O		9.32399982		1.25299906		1.58100072		 0.00040130		 0.00043326		 0.00033268
O		15.65099969		10.20299326		4.21599970		-0.00040130		 0.00043326		 0.00033268
O		0.99899998		7.69699515		1.05399992		 0.00040130		-0.00043326		-0.00033268
O		9.32399982		7.69699515		1.58100072		 0.00040130		-0.00043326		 0.00033268
O		7.32599985		10.20299326		3.68900057		-0.00040130		 0.00043326		-0.00033268
O		0.99899998		3.22199805		3.68900057		 0.00019026		 0.00035532		-0.00010221
O		15.65099969		14.67799202		1.58100072		-0.00019026		-0.00035532		 0.00010221
O		7.32599985		14.67799202		1.05399992		-0.00019026		-0.00035532		-0.00010221
O		9.32399982		3.22199805		4.21599970		 0.00019026		 0.00035532		 0.00010221
O		15.65099969		12.17199225		1.58100072		-0.00019026		 0.00035532		 0.00010221
O		0.99899998		5.72799616		3.68900057		 0.00019026		-0.00035532		-0.00010221
O		9.32399982		5.72799616		4.21599970		 0.00019026		-0.00035532		 0.00010221
O		7.32599985		12.17199225		1.05399992		-0.00019026		 0.00035532		-0.00010221
O		0.99899998		13.42499297		1.05399992		-0.00050306		0.00000000		 0.00042530
O		15.65099969		4.47499710		4.21599970		 0.00050306		-0.00000000		-0.00042530
O		7.32599985		4.47499710		3.68900057		 0.00050306		0.00000000		 0.00042530
O		9.32399982		13.42499297		1.58100072		-0.00050306		0.00000000		-0.00042530
O		0.99899998		4.47499710		1.05399992		 0.00027387		0.00000000		-0.00087911
O		15.65099969		13.42499297		4.21599970		-0.00027387		0.00000000		 0.00087911
O		7.32599985		13.42499297		3.68900057		-0.00027387		-0.00000000		-0.00087911
O		9.32399982		4.47499710		1.58100072		 0.00027387		0.00000000		 0.00087911
O		0.99899998		0.00000000		3.68900057		-0.00035605		 0.00001241		-0.00021960
O		15.65099969		0.00000000		1.58100072		 0.00035605		-0.00001241		 0.00021960
O		7.32599985		0.00000000		1.05399992		 0.00035605		-0.00001241		-0.00021960
O		9.32399982		0.00000000		4.21599970		-0.00035605		 0.00001241		 0.00021960
O		15.65099969		8.94999420		1.58100072		 0.00035605		 0.00001241		 0.00021960
O		0.99899998		8.94999420		3.68900057		-0.00035605		-0.00001241		-0.00021960
O		9.32399982		8.94999420		4.21599970		-0.00035605		-0.00001241		 0.00021960
O		7.32599985		8.94999420		1.05399992		 0.00035605		 0.00001241		-0.00021960
O		0.83249998		15.57299111		0.26349956		-0.00043654		-0.00019133		 0.00026059
O		15.81749969		2.32699896		5.00650006		 0.00043654		 0.00019133		-0.00026059
O		7.49249985		2.32699896		2.89850021		 0.00043654		 0.00019133		 0.00026059
O		9.15749982		15.57299111		2.37149941		-0.00043654		-0.00019133		-0.00026059
O		15.81749969		6.62299524		5.00650006		 0.00043654		-0.00019133		-0.00026059
O		0.83249998		11.27699316		0.26349956		-0.00043654		 0.00019133		 0.00026059
O		9.15749982		11.27699316		2.37149941		-0.00043654		 0.00019133		-0.00026059
O		7.49249985		6.62299524		2.89850021		 0.00043654		-0.00019133		 0.00026059
O		0.83249998		15.57299111		2.84579963		 0.00015141		 0.00032108		 0.00023860
O		15.81749969		2.32699896		2.42419999		-0.00015141		-0.00032108		-0.00023860
O		7.49249985		2.32699896		0.21080065		-0.00015141		-0.00032108		 0.00023860
O		9.15749982		15.57299111		5.05920063		 0.00015141		 0.00032108		-0.00023860
O		15.81749969		6.62299524		2.42419999		-0.00015141		 0.00032108		-0.00023860
O		0.83249998		11.27699316		2.84579963		 0.00015141		-0.00032108		 0.00023860
O		9.15749982		11.27699316		5.05920063		 0.00015141		-0.00032108		-0.00023860
O		7.49249985		6.62299524		0.21080065		-0.00015141		 0.00032108		 0.00023860
O		3.16349994		3.22199805		0.26349956		 0.00007385		-0.00007544		-0.00009496
O		13.48649973		14.67799202		5.00650006		-0.00007385		 0.00007544		 0.00009496
O		5.16149990		14.67799202		2.89850021		-0.00007385		 0.00007544		-0.00009496
O		11.48849977		3.22199805		2.37149941		 0.00007385		-0.00007544		 0.00009496
O		13.48649973		12.17199225		5.00650006		-0.00007385		-0.00007544		 0.00009496
O		3.16349994		5.72799616		0.26349956		 0.00007385		 0.00007544		-0.00009496
O		11.48849977		5.72799616		2.37149941		 0.00007385		 0.00007544		 0.00009496
O		5.16149990		12.17199225		2.89850021		-0.00007385		-0.00007544		-0.00009496
O		3.16349994		1.25299906		2.95119912		 0.00009464		-0.00020801		-0.00035725
O		13.48649973		16.64699102		2.31880050		-0.00009464		 0.00020801		 0.00035725
O		5.16149990		16.64699102		0.31620014		-0.00009464		 0.00020801		-0.00035725
O		11.48849977		1.25299906		4.95379948		 0.00009464		-0.00020801		 0.00035725
O		13.48649973		10.20299326		2.31880050		-0.00009464		-0.00020801		 0.00035725
O		3.16349994		7.69699515		2.95119912		 0.00009464		 0.00020801		-0.00035725
O		11.48849977		7.69699515		4.95379948		 0.00009464		 0.00020801		 0.00035725
O		5.16149990		10.20299326		0.31620014		-0.00009464		-0.00020801		-0.00035725
O		3.16349994		0.00000000		0.26349956		-0.00039937		-0.00008076		 0.00017174
O		13.48649973		0.00000000		5.00650006		 0.00039937		 0.00008076		-0.00017174
O		5.16149990		0.00000000		2.89850021		 0.00039937		 0.00008076		 0.00017174
O		11.48849977		0.00000000		2.37149941		-0.00039937		-0.00008076		-0.00017174
O		13.48649973		8.94999420		5.00650006		 0.00039937		-0.00008076		-0.00017174
O		3.16349994		8.94999420		0.26349956		-0.00039937		 0.00008076		 0.00017174
O		11.48849977		8.94999420		2.37149941		-0.00039937		 0.00008076		-0.00017174
O		5.16149990		8.94999420		2.89850021		 0.00039937		-0.00008076		 0.00017174
O		3.16349994		13.42499297		2.37149941		-0.00028010		0.00000000		-0.00011748
O		13.48649973		4.47499710		2.89850021		 0.00028010		0.00000000		 0.00011748
O		5.16149990		4.47499710		5.00650006		 0.00028010		0.00000000		-0.00011748
O		11.48849977		13.42499297		0.26349956		-0.00028010		0.00000000		 0.00011748
O		3.16349994		4.47499710		2.89850021		 0.00058673		0.00000000		 0.00081519
O		13.48649973		13.42499297		2.37149941		-0.00058673		0.00000000		-0.00081519
O		5.16149990		13.42499297		0.26349956		-0.00058673		0.00000000		 0.00081519
O		11.48849977		4.47499710		5.00650006		 0.00058673		0.00000000		-0.00081519
O		3.32999993		15.57299111		1.58100072		-0.00015809		 0.00035303		 0.00012989
O		13.31999974		2.32699896		3.68900057		 0.00015809		-0.00035303		-0.00012989
O		4.99499990		2.32699896		4.21599970		 0.00015809		-0.00035303		 0.00012989
O		11.65499977		15.57299111		1.05399992		-0.00015809		 0.00035303		-0.00012989
O		13.31999974		6.62299524		3.68900057		 0.00015809		 0.00035303		-0.00012989
O		3.32999993		11.27699316		1.58100072		-0.00015809		-0.00035303		 0.00012989
O		11.65499977		11.27699316		1.05399992		-0.00015809		-0.00035303		-0.00012989
O		4.99499990		6.62299524		4.21599970		 0.00015809		 0.00035303		 0.00012989
O		3.32999993		15.57299111		4.21599970		-0.00003417		 0.00004218		 0.00024471
O		13.31999974		2.32699896		1.05399992		 0.00003417		-0.00004218		-0.00024471
O		4.99499990		2.32699896		1.58100072		 0.00003417		-0.00004218		 0.00024471
O		11.65499977		15.57299111		3.68900057		-0.00003417		 0.00004218		-0.00024471
O		13.31999974		6.62299524		1.05399992		 0.00003417		 0.00004218		-0.00024471
O		3.32999993		11.27699316		4.21599970		-0.00003417		-0.00004218		 0.00024471
O		11.65499977		11.27699316		3.68900057		-0.00003417		-0.00004218		-0.00024471
O		4.99499990		6.62299524		1.58100072		 0.00003417		 0.00004218		 0.00024471
H		16.15049968		0.00000000		0.79050036		 0.00012044		-0.00005237		-0.00020982
H		0.49949999		0.00000000		4.47949926		-0.00012044		 0.00005237		 0.00020982
H		8.82449983		0.00000000		3.42549934		-0.00012044		 0.00005237		-0.00020982
H		7.82549984		0.00000000		1.84450028		 0.00012044		-0.00005237		 0.00020982
H		0.49949999		8.94999420		4.47949926		-0.00012044		-0.00005237		 0.00020982
H		16.15049968		8.94999420		0.79050036		 0.00012044		 0.00005237		-0.00020982
H		7.82549984		8.94999420		1.84450028		 0.00012044		 0.00005237		 0.00020982
H		8.82449983		8.94999420		3.42549934		-0.00012044		-0.00005237		-0.00020982
