# total energy = -44012.297067 eV	

CRYSTAL	
PRIMVEC	
		9.81799975		0.00000000		0.00000000	
		0.00000000		18.94934823		0.00000000	
		-1.33411890		0.00000000		5.10350427	
PRIMCOORD
   82 1	
Si		2.35753443		1.59174517		1.51267886		-0.00021658		 0.00005595		-0.00013990	
Si		6.12634446		17.35760600		3.59082443		 0.00021658		-0.00005595		 0.00013990	
Si		6.12634446		1.59174517		3.59082443		 0.00021658		 0.00005595		 0.00013990	
Si		2.35753443		17.35760600		1.51267886		-0.00021658		-0.00005595		-0.00013990	
Si		7.26653430		11.06642027		1.51267886		-0.00026327		 0.00006341		-0.00015226	
Si		1.21734557		7.88292992		3.59082443		 0.00026327		-0.00006341		 0.00015226	
Si		1.21734557		11.06642027		3.59082443		 0.00026327		 0.00006341		 0.00015226	
Si		7.26653430		7.88292992		1.51267886		-0.00026327		-0.00006341		-0.00015226	
Si		1.76155730		3.24223438		4.10423807		 0.00023931		-0.00019505		 0.00001208	
Si		6.72232257		15.70711679		0.99926620		-0.00023931		 0.00019505		-0.00001208	
Si		6.72232257		3.24223438		0.99926620		-0.00023931		-0.00019505		-0.00001208	
Si		1.76155730		15.70711679		4.10423807		 0.00023931		 0.00019505		 0.00001208	
Si		6.67055717		12.71690948		4.10423807		 0.00020754		-0.00020053		 0.00000810	
Si		1.81332172		6.23244071		0.99926620		-0.00020754		 0.00020053		-0.00000810	
Si		1.81332172		12.71690948		0.99926620		-0.00020754		-0.00020053		-0.00000810	
Si		6.67055717		6.23244071		4.10423807		 0.00020754		 0.00020053		 0.00000810	
O		2.58846753		2.24549829		3.00290199		 0.00016475		 0.00027499		-0.00048842	
O		5.89541038		16.70385289		2.10060228		-0.00016475		-0.00027499		 0.00048842	
O		5.89541038		2.24549829		2.10060228		-0.00016475		 0.00027499		 0.00048842	
O		2.58846753		16.70385289		3.00290199		 0.00016475		-0.00027499		-0.00048842	
O		7.49746838		11.72017240		3.00290199		 0.00017224		 0.00027290		-0.00048403	
O		0.98641051		7.22917681		2.10060228		-0.00017224		-0.00027290		 0.00048403	
O		0.98641051		11.72017240		2.10060228		-0.00017224		 0.00027290		 0.00048403	
O		7.49746838		7.22917681		3.00290199		 0.00017224		-0.00027290		-0.00048403	
O		0.80703271		1.62964363		1.10797109		-0.00013361		-0.00031858		-0.00009788	
O		7.67684716		17.31970558		3.99553318		 0.00013361		 0.00031858		 0.00009788	
O		7.67684716		1.62964363		3.99553318		 0.00013361		-0.00031858		 0.00009788	
O		0.80703271		17.31970558		1.10797109		-0.00013361		 0.00031858		-0.00009788	
O		5.71603258		11.10431971		1.10797109		-0.00008957		-0.00031318		-0.00008978	
O		2.76784729		7.84503048		3.99553318		 0.00008957		 0.00031318		 0.00008978	
O		2.76784729		11.10431971		3.99553318		 0.00008957		-0.00031318		 0.00008978	
O		5.71603258		7.84503048		1.10797109		-0.00008957		 0.00031318		-0.00008978	
O		2.52914030		4.69943860		4.04860928		-0.00052956		 0.00000546		-0.00037990	
O		5.95473957		14.24991062		1.05489400		 0.00052956		-0.00000546		 0.00037990	
O		5.95473957		4.69943860		1.05489400		 0.00052956		 0.00000546		 0.00037990	
O		2.52914030		14.24991062		4.04860928		-0.00052956		-0.00000546		-0.00037990	
O		7.43813919		14.17411468		4.04860928		-0.00051948		 0.00001331		-0.00037914	
O		1.04573970		4.77523650		1.05489400		 0.00051948		-0.00001331		 0.00037914	
O		1.04573970		14.17411468		1.05489400		 0.00051948		 0.00001331		 0.00037914	
O		7.43813919		4.77523650		4.04860928		-0.00051948		-0.00001331		-0.00037914	
O		2.91896987		0.00000000		1.49073268		-0.00015062		0.00000000		-0.00021303	
O		5.56491000		0.00000000		3.61276962		 0.00015062		0.00000000		 0.00021303	
O		7.82796876		9.47467510		1.49073268		-0.00013934		0.00000000		-0.00021095	
O		0.65591013		9.47467510		3.61276962		 0.00013934		0.00000000		 0.00021095	
O		0.19753030		3.24412926		3.69493646		 0.00036056		 0.00022382		-0.00038343	
O		8.28634957		15.70522094		1.40856682		-0.00036056		-0.00022382		 0.00038343	
O		8.28634957		3.24412926		1.40856682		-0.00036056		 0.00022382		 0.00038343	
O		0.19753030		15.70522094		3.69493646		 0.00036056		-0.00022382		-0.00038343	
O		5.10653018		12.71880436		3.69493646		 0.00038369		 0.00022444		-0.00037642	
O		3.37734970		6.23054584		1.40856682		-0.00038369		-0.00022444		 0.00037642	
O		3.37734970		12.71880436		1.40856682		-0.00038369		 0.00022444		 0.00037642	
O		5.10653018		6.23054584		3.69493646		 0.00038369		-0.00022444		-0.00037642	
O		0.12189047		0.00000000		3.65002599		-0.00045058		0.00000000		-0.00016393	
O		8.36198940		0.00000000		1.45347828		 0.00045058		0.00000000		 0.00016393	
O		5.03089034		9.47467510		3.65002599		 0.00023388		0.00000000		 0.00003095	
O		3.45298953		9.47467510		1.45347828		-0.00023388		0.00000000		-0.00003095	
O		3.26959224		2.54489819		0.50626810		 0.00032781		-0.00004970		 0.00029247	
O		5.21428665		16.40445299		4.59723617		-0.00032781		 0.00004970		-0.00029247	
O		5.21428665		2.54489819		4.59723617		-0.00032781		-0.00004970		-0.00029247	
O		3.26959224		16.40445299		0.50626810		 0.00032781		 0.00004970		 0.00029247	
O		8.17859310		12.01957230		0.50626810		 0.00033591		-0.00004852		 0.00029013	
O		0.30528678		6.92977789		4.59723617		-0.00033591		 0.00004852		-0.00029013	
O		0.30528678		12.01957230		4.59723617		-0.00033591		-0.00004852		-0.00029013	
O		8.17859310		6.92977789		0.50626810		 0.00033591		 0.00004852		 0.00029013	
Ca		-0.66706043		5.26033994		2.55175213		0.00000000		-0.00040910		0.00000000	
Ca		-0.66706043		13.68901025		2.55175213		0.00000000		 0.00040910		0.00000000	
Ca		4.24193944		14.73501504		2.55175213		0.00000000		-0.00040955		0.00000000	
Ca		4.24193944		4.21433614		2.55175213		0.00000000		 0.00040955		0.00000000	
Mg		0.00000000		0.00000000		0.00000000		0.00000000		0.00000000		0.00000000	
Mg		4.90899987		9.47467510		0.00000000		0.00000000		0.00000000		0.00000000	
Mg		0.00000000		3.34645540		0.00000000		0.00000000		 0.00000253		0.00000000	
Mg		0.00000000		15.60289578		0.00000000		0.00000000		-0.00000253		0.00000000	
Mg		4.90899987		12.82112951		0.00000000		0.00000000		-0.00000195		0.00000000	
Mg		4.90899987		6.12821970		0.00000000		0.00000000		 0.00000195		0.00000000	
Mg		-0.66706043		1.66375333		2.55175213		0.00000000		 0.00021110		0.00000000	
Mg		-0.66706043		17.28559687		2.55175213		0.00000000		-0.00021110		0.00000000	
Mg		4.24193944		11.13842843		2.55175213		0.00000000		 0.00022135		0.00000000	
Mg		4.24193944		7.81092275		2.55175213		0.00000000		-0.00022135		0.00000000	
H		0.92650893		0.00000000		3.92969760		 0.00093787		0.00000000		 0.00070793	
H		7.55736996		0.00000000		1.17380569		-0.00093787		0.00000000		-0.00070793	
H		5.83550880		9.47467510		3.92969760		 0.00031352		0.00000000		 0.00053239	
H		2.64837009		9.47467510		1.17380569		-0.00031352		0.00000000		-0.00053239	
