# total energy = -44011.1334265 eV	

CRYSTAL	
PRIMVEC	
		9.81799975		0.00000000		0.00000000	
		0.00000000		17.14465261		0.00000000	
		-1.33411890		0.00000000		5.10350427	
PRIMCOORD
   82 1	
Si		2.35753443		1.44015133		1.51267886		-0.00017448		-0.00014531		 0.00022604	
Si		6.12634446		15.70449931		3.59082443		 0.00017448		 0.00014531		-0.00022604	
Si		6.12634446		1.44015133		3.59082443		 0.00017448		-0.00014531		-0.00022604	
Si		2.35753443		15.70449931		1.51267886		-0.00017448		 0.00014531		 0.00022604	
Si		7.26653430		10.01247567		1.51267886		-0.00049074		-0.00020529		 0.00014582	
Si		1.21734557		7.13217497		3.59082443		 0.00049074		 0.00020529		-0.00014582	
Si		1.21734557		10.01247567		3.59082443		 0.00049074		-0.00020529		-0.00014582	
Si		7.26653430		7.13217497		1.51267886		-0.00049074		 0.00020529		 0.00014582	
Si		1.76155730		2.93344946		4.10423807		 0.00021454		 0.00046814		 0.00026793	
Si		6.72232257		14.21120021		0.99926620		-0.00021454		-0.00046814		-0.00026793	
Si		6.72232257		2.93344946		0.99926620		-0.00021454		 0.00046814		-0.00026793	
Si		1.76155730		14.21120021		4.10423807		 0.00021454		-0.00046814		 0.00026793	
Si		6.67055717		11.50577576		4.10423807		-0.00028915		 0.00008113		 0.00023044	
Si		1.81332172		5.63887488		0.99926620		 0.00028915		-0.00008113		-0.00023044	
Si		1.81332172		11.50577576		0.99926620		 0.00028915		 0.00008113		-0.00023044	
Si		6.67055717		5.63887488		4.10423807		-0.00028915		-0.00008113		 0.00023044	
O		2.58846753		2.03164065		3.00290199		-0.00031338		 0.00011717		 0.00004440	
O		5.89541038		15.11300999		2.10060228		 0.00031338		-0.00011717		-0.00004440	
O		5.89541038		2.03164065		2.10060228		 0.00031338		 0.00011717		-0.00004440	
O		2.58846753		15.11300999		3.00290199		-0.00031338		-0.00011717		 0.00004440	
O		7.49746838		10.60396597		3.00290199		-0.00026368		 0.00017149		 0.00012369	
O		0.98641051		6.54068369		2.10060228		 0.00026368		-0.00017149		-0.00012369	
O		0.98641051		10.60396597		2.10060228		 0.00026368		 0.00017149		-0.00012369	
O		7.49746838		6.54068369		3.00290199		-0.00026368		-0.00017149		 0.00012369	
O		0.80703271		1.47443971		1.10797109		-0.00047819		 0.00078626		 0.00013988	
O		7.67684716		15.67020995		3.99553318		 0.00047819		-0.00078626		-0.00013988	
O		7.67684716		1.47443971		3.99553318		 0.00047819		 0.00078626		-0.00013988	
O		0.80703271		15.67020995		1.10797109		-0.00047819		-0.00078626		 0.00013988	
O		5.71603258		10.04676602		1.10797109		-0.00025015		 0.00079563		 0.00019774	
O		2.76784729		7.09788561		3.99553318		 0.00025015		-0.00079563		-0.00019774	
O		2.76784729		10.04676602		3.99553318		 0.00025015		 0.00079563		-0.00019774	
O		5.71603258		7.09788561		1.10797109		-0.00025015		-0.00079563		 0.00019774	
O		2.52914030		4.25187330		4.04860928		 0.00027107		-0.00018774		 0.00000876	
O		5.95473957		12.89277637		1.05489400		-0.00027107		 0.00018774		-0.00000876	
O		5.95473957		4.25187330		1.05489400		-0.00027107		-0.00018774		-0.00000876	
O		2.52914030		12.89277637		4.04860928		 0.00027107		 0.00018774		 0.00000876	
O		7.43813919		12.82419862		4.04860928		 0.00050392		 0.00016584		 0.00001651	
O		1.04573970		4.32045203		1.05489400		-0.00050392		-0.00016584		-0.00001651	
O		1.04573970		12.82419862		1.05489400		-0.00050392		 0.00016584		-0.00001651	
O		7.43813919		4.32045203		4.04860928		 0.00050392		-0.00016584		 0.00001651	
O		2.91896987		0.00000000		1.49073268		 0.00033551		0.00000000		 0.00032478	
O		5.56491000		0.00000000		3.61276962		-0.00033551		0.00000000		-0.00032478	
O		7.82796876		8.57232434		1.49073268		 0.00039384		0.00000000		 0.00032798	
O		0.65591013		8.57232434		3.61276962		-0.00039384		0.00000000		-0.00032798	
O		0.19753030		2.93516368		3.69493646		-0.00013148		 0.00018482		 0.00071349	
O		8.28634957		14.20948598		1.40856682		 0.00013148		-0.00018482		-0.00071349	
O		8.28634957		2.93516368		1.40856682		 0.00013148		 0.00018482		-0.00071349	
O		0.19753030		14.20948598		3.69493646		-0.00013148		-0.00018482		 0.00071349	
O		5.10653018		11.50748998		3.69493646		 0.00015788		 0.00022896		 0.00078067	
O		3.37734970		5.63716066		1.40856682		-0.00015788		-0.00022896		-0.00078067	
O		3.37734970		11.50748998		1.40856682		-0.00015788		 0.00022896		-0.00078067	
O		5.10653018		5.63716066		3.69493646		 0.00015788		-0.00022896		 0.00078067	
O		0.12189047		0.00000000		3.65002599		-0.00015719		0.00000000		-0.00041825	
O		8.36198940		0.00000000		1.45347828		 0.00015719		0.00000000		 0.00041825	
O		5.03089034		8.57232434		3.65002599		 0.00044330		0.00000000		-0.00026611	
O		3.45298953		8.57232434		1.45347828		-0.00044330		0.00000000		 0.00026611	
O		3.26959224		2.30252614		0.50626810		-0.00063859		 0.00009700		 0.00025858	
O		5.21428665		14.84212353		4.59723617		 0.00063859		-0.00009700		-0.00025858	
O		5.21428665		2.30252614		4.59723617		 0.00063859		 0.00009700		-0.00025858	
O		3.26959224		14.84212353		0.50626810		-0.00063859		-0.00009700		 0.00025858	
O		8.17859310		10.87485146		0.50626810		-0.00054495		 0.00018145		 0.00020751	
O		0.30528678		6.26979918		4.59723617		 0.00054495		-0.00018145		-0.00020751	
O		0.30528678		10.87485146		4.59723617		 0.00054495		 0.00018145		-0.00020751	
O		8.17859310		6.26979918		0.50626810		-0.00054495		-0.00018145		 0.00020751	
Ca		-0.66706043		4.75935490		2.55175213		0.00000000		 0.00033027		0.00000000	
Ca		-0.66706043		12.38529574		2.55175213		0.00000000		-0.00033027		0.00000000	
Ca		4.24193944		13.33167924		2.55175213		0.00000000		 0.00027005		0.00000000	
Ca		4.24193944		3.81297042		2.55175213		0.00000000		-0.00027005		0.00000000	
Mg		0.00000000		0.00000000		0.00000000		0.00000000		0.00000000		0.00000000	
Mg		4.90899987		8.57232434		0.00000000		0.00000000		0.00000000		0.00000000	
Mg		0.00000000		3.02774447		0.00000000		0.00000000		 0.00088217		0.00000000	
Mg		0.00000000		14.11690519		0.00000000		0.00000000		-0.00088217		0.00000000	
Mg		4.90899987		11.60006979		0.00000000		0.00000000		 0.00083087		0.00000000	
Mg		4.90899987		5.54457987		0.00000000		0.00000000		-0.00083087		0.00000000	
Mg		-0.66706043		1.50529965		2.55175213		0.00000000		-0.00009349		0.00000000	
Mg		-0.66706043		15.63935001		2.55175213		0.00000000		 0.00009349		0.00000000	
Mg		4.24193944		10.07762595		2.55175213		0.00000000		-0.00008851		0.00000000	
Mg		4.24193944		7.06702469		2.55175213		0.00000000		 0.00008851		0.00000000	
H		0.92650893		0.00000000		3.92969760		 0.00083692		-0.00000000		 0.00031960	
H		7.55736996		0.00000000		1.17380569		-0.00083692		-0.00000000		-0.00031960	
H		5.83550880		8.57232434		3.92969760		 0.00030083		0.00000000		 0.00018921	
H		2.64837009		8.57232434		1.17380569		-0.00030083		0.00000000		-0.00018921	
