# total energy = -44012.4595102 eV	

CRYSTAL	
PRIMVEC	
		9.81799975		0.00000000		0.00000000	
		0.00000000		17.59582897		0.00000000	
		-1.33411890		0.00000000		5.10350427	
PRIMCOORD
   82 1	
Si		2.35753443		1.47804881		1.51267886		-0.00022128		-0.00008677		 0.00014585	
Si		6.12634446		16.11777623		3.59082443		 0.00022128		 0.00008677		-0.00014585	
Si		6.12634446		1.47804881		3.59082443		 0.00022128		-0.00008677		-0.00014585	
Si		2.35753443		16.11777623		1.51267886		-0.00022128		 0.00008677		 0.00014585	
Si		7.26653430		10.27596133		1.51267886		-0.00044676		-0.00014772		 0.00008634	
Si		1.21734557		7.31986371		3.59082443		 0.00044676		 0.00014772		-0.00008634	
Si		1.21734557		10.27596133		3.59082443		 0.00044676		-0.00014772		-0.00008634	
Si		7.26653430		7.31986371		1.51267886		-0.00044676		 0.00014772		 0.00008634	
Si		1.76155730		3.01064544		4.10423807		 0.00007769		 0.00025575		 0.00020007	
Si		6.72232257		14.58517960		0.99926620		-0.00007769		-0.00025575		-0.00020007	
Si		6.72232257		3.01064544		0.99926620		-0.00007769		 0.00025575		-0.00020007	
Si		1.76155730		14.58517960		4.10423807		 0.00007769		-0.00025575		 0.00020007	
Si		6.67055717		11.80855894		4.10423807		-0.00031823		-0.00007223		 0.00016883	
Si		1.81332172		5.78726708		0.99926620		 0.00031823		 0.00007223		-0.00016883	
Si		1.81332172		11.80855894		0.99926620		 0.00031823		-0.00007223		-0.00016883	
Si		6.67055717		5.78726708		4.10423807		-0.00031823		 0.00007223		 0.00016883	
O		2.58846753		2.08510457		3.00290199		-0.00013907		 0.00010810		-0.00000579	
O		5.89541038		15.51072047		2.10060228		 0.00013907		-0.00010810		 0.00000579	
O		5.89541038		2.08510457		2.10060228		 0.00013907		 0.00010810		 0.00000579	
O		2.58846753		15.51072047		3.00290199		-0.00013907		-0.00010810		-0.00000579	
O		7.49746838		10.88301807		3.00290199		-0.00010457		 0.00016194		 0.00006435	
O		0.98641051		6.71280795		2.10060228		 0.00010457		-0.00016194		-0.00006435	
O		0.98641051		10.88301807		2.10060228		 0.00010457		 0.00016194		-0.00006435	
O		7.49746838		6.71280795		3.00290199		-0.00010457		-0.00016194		 0.00006435	
O		0.80703271		1.51324143		1.10797109		-0.00052326		 0.00042847		-0.00002236	
O		7.67684716		16.08258361		3.99553318		 0.00052326		-0.00042847		 0.00002236	
O		7.67684716		1.51324143		3.99553318		 0.00052326		 0.00042847		 0.00002236	
O		0.80703271		16.08258361		1.10797109		-0.00052326		-0.00042847		-0.00002236	
O		5.71603258		10.31115395		1.10797109		-0.00036465		 0.00043339		 0.00001779	
O		2.76784729		7.28467207		3.99553318		 0.00036465		-0.00043339		-0.00001779	
O		2.76784729		10.31115395		3.99553318		 0.00036465		 0.00043339		-0.00001779	
O		5.71603258		7.28467207		1.10797109		-0.00036465		-0.00043339		 0.00001779	
O		2.52914030		4.36376511		4.04860928		 0.00033624		-0.00011046		-0.00006151	
O		5.95473957		13.23206091		1.05489400		-0.00033624		 0.00011046		 0.00006151	
O		5.95473957		4.36376511		1.05489400		-0.00033624		-0.00011046		 0.00006151	
O		2.52914030		13.23206091		4.04860928		 0.00033624		 0.00011046		-0.00006151	
O		7.43813919		13.16167763		4.04860928		 0.00052382		 0.00018202		-0.00005198	
O		1.04573970		4.43414741		1.05489400		-0.00052382		-0.00018202		 0.00005198	
O		1.04573970		13.16167763		1.05489400		-0.00052382		 0.00018202		 0.00005198	
O		7.43813919		4.43414741		4.04860928		 0.00052382		-0.00018202		-0.00005198	
O		2.91896987		0.00000000		1.49073268		 0.00028775		0.00000000		 0.00023049	
O		5.56491000		0.00000000		3.61276962		-0.00028775		0.00000000		-0.00023049	
O		7.82796876		8.79791252		1.49073268		 0.00032073		0.00000000		 0.00023446	
O		0.65591013		8.79791252		3.61276962		-0.00032073		0.00000000		-0.00023446	
O		0.19753030		3.01240581		3.69493646		-0.00006175		-0.00005765		 0.00044674	
O		8.28634957		14.58341923		1.40856682		 0.00006175		 0.00005765		-0.00044674	
O		8.28634957		3.01240581		1.40856682		 0.00006175		-0.00005765		-0.00044674	
O		0.19753030		14.58341923		3.69493646		-0.00006175		 0.00005765		 0.00044674	
O		5.10653018		11.81031833		3.69493646		 0.00016474		-0.00001871		 0.00050191	
O		3.37734970		5.78550671		1.40856682		-0.00016474		 0.00001871		-0.00050191	
O		3.37734970		11.81031833		1.40856682		-0.00016474		-0.00001871		-0.00050191	
O		5.10653018		5.78550671		3.69493646		 0.00016474		 0.00001871		 0.00050191	
O		0.12189047		0.00000000		3.65002599		-0.00005793		0.00000000		-0.00032825	
O		8.36198940		0.00000000		1.45347828		 0.00005793		0.00000000		 0.00032825	
O		5.03089034		8.79791252		3.65002599		 0.00023054		0.00000000		-0.00025215	
O		3.45298953		8.79791252		1.45347828		-0.00023054		0.00000000		 0.00025215	
O		3.26959224		2.36311890		0.50626810		-0.00044372		 0.00013647		 0.00025935	
O		5.21428665		15.23270614		4.59723617		 0.00044372		-0.00013647		-0.00025935	
O		5.21428665		2.36311890		4.59723617		 0.00044372		 0.00013647		-0.00025935	
O		3.26959224		15.23270614		0.50626810		-0.00044372		-0.00013647		 0.00025935	
O		8.17859310		11.16103143		0.50626810		-0.00037154		 0.00021009		 0.00020496	
O		0.30528678		6.43479362		4.59723617		 0.00037154		-0.00021009		-0.00020496	
O		0.30528678		11.16103143		4.59723617		 0.00037154		 0.00021009		-0.00020496	
O		8.17859310		6.43479362		0.50626810		-0.00037154		-0.00021009		 0.00020496	
Ca		-0.66706043		4.88460116		2.55175213		0.00000000		 0.00026860		0.00000000	
Ca		-0.66706043		12.71122486		2.55175213		0.00000000		-0.00026860		0.00000000	
Ca		4.24193944		13.68251368		2.55175213		0.00000000		 0.00021515		0.00000000	
Ca		4.24193944		3.91331234		2.55175213		0.00000000		-0.00021515		0.00000000	
Mg		0.00000000		0.00000000		0.00000000		0.00000000		0.00000000		0.00000000	
Mg		4.90899987		8.79791252		0.00000000		0.00000000		0.00000000		0.00000000	
Mg		0.00000000		3.10742245		0.00000000		0.00000000		 0.00064242		0.00000000	
Mg		0.00000000		14.48840259		0.00000000		0.00000000		-0.00064242		0.00000000	
Mg		4.90899987		11.90533497		0.00000000		0.00000000		 0.00060341		0.00000000	
Mg		4.90899987		5.69049007		0.00000000		0.00000000		-0.00060341		0.00000000	
Mg		-0.66706043		1.54491430		2.55175213		0.00000000		-0.00007985		0.00000000	
Mg		-0.66706043		16.05091173		2.55175213		0.00000000		 0.00007985		0.00000000	
Mg		4.24193944		10.34282682		2.55175213		0.00000000		-0.00008139		0.00000000	
Mg		4.24193944		7.25299921		2.55175213		0.00000000		 0.00008139		0.00000000	
H		0.92650893		0.00000000		3.92969760		 0.00051680		-0.00000000		 0.00026602	
H		7.55736996		0.00000000		1.17380569		-0.00051680		-0.00000000		-0.00026602	
H		5.83550880		8.79791252		3.92969760		 0.00026159		-0.00000000		 0.00019967	
H		2.64837009		8.79791252		1.17380569		-0.00026159		-0.00000000		-0.00019967	
