# total energy = -22464.2751688 eV	

CRYSTAL	
PRIMVEC	
		11.51465558		0.00017201		0.19816112	
		-0.00014485		9.66849539		0.00028970	
		-0.62543556		-0.00014485		5.50718434	
PRIMCOORD
   40 1	
Ca		8.94003035		0.09985187		0.51716802		 0.00014169		-0.00016834		-0.00025980	
Ca		1.94897692		9.56858829		5.18817654		-0.00015193		 0.00014975		 0.00027937	
Ca		2.26191831		4.93403710		2.43450289		-0.00015027		-0.00014318		 0.00026974	
Ca		8.62728813		4.73461671		3.27090413		 0.00014993		 0.00016503		-0.00026942	
Mg		1.83715517		1.53399012		2.43285253		-0.00006143		 0.00110682		 0.00040820	
Mg		9.05199152		8.13463926		3.27258980		 0.00005518		-0.00110137		-0.00041744	
Mg		9.36476362		6.36833558		0.51893697		 0.00005468		 0.00109713		-0.00040979	
Mg		1.52439484		3.30014713		5.18650536		-0.00004149		-0.00111182		 0.00040943	
Si		4.12337445		2.12035202		3.80084321		-0.00022406		 0.00030650		 0.00021529	
Si		6.76580845		7.54807456		1.90443616		-0.00008561		-0.00020778		-0.00026660	
Si		7.07857059		6.95481608		-0.84917050		-0.00011166		 0.00026063		-0.00027096	
Si		3.81070736		2.71363766		6.55446255		-0.00025587		-0.00025713		 0.00018010	
Si		0.43595446		8.06674628		1.51866520		 0.00022014		-0.00007134		 0.00007872	
Si		10.45299397		1.60196457		4.18764079		 0.00000416		 0.00000558		-0.00011475	
Si		10.76578508		3.23246057		1.43409298		-0.00020479		 0.00017591		-0.00010401	
Si		0.12330458		6.43591713		4.27216503		 0.00021541		 0.00002224		 0.00013996	
O		3.15929965		1.67274635		0.86428810		 0.00021320		 0.00015591		-0.00029321	
O		7.72980086		7.99565036		4.84090074		-0.00008574		-0.00004414		 0.00034679	
O		8.04252136		6.50721675		2.08726421		-0.00005712		 0.00001267		 0.00035430	
O		2.84656558		3.16146151		3.61793369		 0.00023336		-0.00017930		-0.00028173	
O		3.69377338		4.15730328		0.91660629		-0.00012853		-0.00010469		-0.00022898	
O		7.19523841		5.51113779		4.78865135		 0.00022437		 0.00002034		 0.00025171	
O		7.50790007		8.99167319		2.03515605		 0.00019309		-0.00005287		 0.00024874	
O		3.38101577		0.67688014		3.67003642		-0.00014414		 0.00007171		-0.00022034	
O		5.16173635		2.44442317		2.52534703		-0.00003162		-0.00010942		-0.00008991	
O		5.72727816		7.22399527		3.17990337		 0.00017203		 0.00010643		 0.00013413	
O		6.04001133		7.27875415		0.42631663		 0.00016561		-0.00009197		 0.00012120	
O		4.84906474		2.38960725		5.27892472		-0.00006222		 0.00011037		-0.00009608	
O		0.86810304		3.20341311		1.38613380		-0.00025611		-0.00037001		-0.00013868	
O		10.02103188		6.46513659		4.31980373		 0.00020073		 0.00036224		 0.00011224	
O		10.33370440		8.03775314		1.56628398		 0.00017930		-0.00035151		 0.00010570	
O		0.55541966		1.63076216		4.13963363		-0.00035922		 0.00036103		-0.00013372	
O		1.12879956		-0.15793049		1.58932115		-0.00043159		-0.00086087		-0.00023292	
O		9.76012080		9.82670652		4.11607139		 0.00041563		 0.00084671		 0.00022449	
O		10.07291644		4.67630996		1.36229816		 0.00049926		-0.00101174		 0.00024000	
O		0.81617684		4.99213473		4.34305636		-0.00046644		 0.00090535		-0.00023155	
O		1.16767586		7.36163980		0.13443162		-0.00019568		-0.00011146		 0.00012004	
O		9.72141651		2.30580544		5.57253342		 0.00016229		 0.00014920		-0.00014131	
O		10.03409355		2.52861516		2.81895031		 0.00017137		-0.00016385		-0.00014310	
O		0.85492368		7.14112863		2.88803194		-0.00016586		 0.00012123		 0.00010417	
