# total energy = -117591.901044 eV	

CRYSTAL	
PRIMVEC	
		10.58799680		0.00000000		-0.84703762	
		0.00000000		14.09700244		0.00000000	
		-3.23549358		0.00000000		9.96583389	
PRIMCOORD
   156 1	
Si		8.12534845		0.01395602		0.06974610		 0.00004293		-0.00025821		 0.00001150	
Si		-0.77284416		14.08304323		9.04904910		-0.00004293		 0.00025821		-0.00001150	
Si		0.84490263		7.06245617		4.06613216		-0.00004293		-0.00025821		-0.00001150	
Si		6.50760166		7.03454414		5.05266411		 0.00004293		 0.00025821		 0.00001150	
Si		3.08848324		2.67335461		6.29136037		 0.00008493		-0.00019573		-0.00001807	
Si		4.26402211		11.42364464		2.82743590		-0.00008493		 0.00019573		 0.00001807	
Si		2.64627532		9.72185477		7.81035391		-0.00008493		-0.00019573		 0.00001807	
Si		4.70623109		4.37514448		1.30844236		 0.00008493		 0.00019573		-0.00001807	
Si		0.87830828		1.76917262		4.07219616		 0.00032969		-0.00002944		-0.00001962	
Si		6.47419707		12.32782663		5.04660011		-0.00032969		 0.00002944		 0.00001962	
Si		8.09194386		8.81767278		0.06368210		-0.00032969		-0.00002944		 0.00001962	
Si		-0.73943957		5.27932647		9.05511417		 0.00032969		 0.00002944		-0.00001962	
Si		6.41740641		1.73858282		5.04871598		 0.00006250		-0.00006489		 0.00006118	
Si		0.93509788		12.35841643		4.07007923		-0.00006250		 0.00006489		-0.00006118	
Si		-0.68264997		8.78708298		9.05299724		-0.00006250		-0.00006489		-0.00006118	
Si		8.03515532		5.30991733		0.06579797		 0.00006250		 0.00006489		 0.00006118	
Mg		3.67625161		0.00000000		4.55939814		0.00000000		0.00000000		0.00000000	
Mg		5.29399946		7.04850016		-0.42351987		0.00000000		0.00000000		0.00000000	
Mg		4.11718491		2.46006832		3.13010062		 0.00006465		 0.00048986		-0.00004857	
Mg		3.23532044		11.63693306		5.98869353		-0.00006465		-0.00048986		 0.00004857	
Mg		4.85306829		9.50856741		1.00577552		-0.00006465		 0.00048986		 0.00004857	
Mg		2.49943706		4.58843290		8.11301863		 0.00006465		-0.00048986		-0.00004857	
Mg		5.29399946		0.00000000		-0.42351987		0.00000000		0.00000000		0.00000000	
Mg		3.67625161		7.04850016		4.55939814		-0.00000000		0.00000000		-0.00000000	
Mg		5.96254577		0.03510195		2.36850498		 0.00032432		-0.00006266		-0.00019008	
Mg		1.38995852		14.06189836		6.75029023		-0.00032432		 0.00006266		 0.00019008	
Mg		3.00770637		7.08360105		1.76737328		-0.00032432		-0.00006266		 0.00019008	
Mg		4.34479792		7.01339820		7.35142299		 0.00032432		 0.00006266		-0.00019008	
Mg		0.30259887		0.00493384		1.45513830		 0.00001323		 0.00030579		-0.00008939	
Mg		7.04990542		14.09206541		7.66365691		-0.00001323		-0.00030579		 0.00008939	
Mg		8.66765434		7.05343399		2.68073890		-0.00001323		 0.00030579		 0.00008939	
Mg		-1.31514899		7.04356632		6.43805630		 0.00001323		-0.00030579		-0.00008939	
Mg		-1.36446082		0.00493384		6.27038226		-0.00008541		 0.00008517		-0.00024663	
Mg		8.71696617		14.09206541		2.84841401		 0.00008541		-0.00008517		 0.00024663	
Mg		7.09921832		7.05343399		7.83133202		 0.00008541		 0.00008517		 0.00024663	
Mg		0.25328703		7.04356632		1.28746425		-0.00008541		-0.00008517		-0.00024663	
Mg		3.02565301		0.03904902		1.84931962		 0.00038931		 0.00017287		 0.00017833	
Mg		4.32685235		14.05795023		7.26947559		-0.00038931		-0.00017287		-0.00017833	
Mg		5.94459913		7.08754918		2.28655758		-0.00038931		 0.00017287		-0.00017833	
Mg		1.40790622		7.00945113		6.83223763		 0.00038931		-0.00017287		 0.00017833	
Mg		6.47453060		2.39564375		0.68191919		-0.00014323		 0.00006584		 0.00022321	
Mg		0.87797369		11.70135550		8.43687602		 0.00014323		-0.00006584		-0.00022321	
Mg		2.49572048		9.44414390		3.45395907		 0.00014323		 0.00006584		-0.00022321	
Mg		4.85678381		4.65285641		5.66483720		-0.00014323		-0.00006584		 0.00022321	
Mg		-2.39580308		2.43920386		9.60463440		 0.00023464		 0.00011179		 0.00004183	
Mg		9.74830736		11.65779539		-0.48584026		-0.00023464		-0.00011179		-0.00004183	
Mg		8.13055951		9.48770402		4.49707775		-0.00023464		 0.00011179		-0.00004183	
Mg		-0.77805522		4.60929629		4.62171640		 0.00023464		-0.00011179		 0.00004183	
Mg		-0.11877646		2.49798824		7.30887195		 0.00018098		-0.00002293		-0.00048129	
Mg		7.47128075		11.59901101		1.80992432		-0.00018098		 0.00002293		 0.00048129	
Mg		5.85353290		9.54648840		6.79284233		-0.00018098		-0.00002293		 0.00048129	
Mg		1.49897139		4.55051085		2.32595394		 0.00018098		 0.00002293		-0.00048129	
Mg		5.30466697		2.48008515		8.26202906		-0.00000854		-0.00022206		-0.00007808	
Mg		2.04783839		11.61691516		0.85676615		 0.00000854		 0.00022206		 0.00007808	
Mg		0.43008947		9.52858531		5.83968416		 0.00000854		-0.00022206		 0.00007808	
Mg		6.92241482		4.56841500		3.27911105		-0.00000854		 0.00022206		-0.00007808	
Mg		3.57004396		2.37633114		0.15218211		 0.00002662		-0.00026766		-0.00022908	
Mg		3.78246139		11.72066917		8.96661416		-0.00002662		 0.00026766		 0.00022908	
Mg		5.40020924		9.42483130		3.98369616		-0.00002662		-0.00026766		 0.00022908	
Mg		1.95229611		4.67216901		5.13510011		 0.00002662		 0.00026766		-0.00022908	
Mg		9.24919407		2.50221679		1.19000899		-0.00008405		 0.00019915		 0.00034553	
Mg		-1.89668872		11.59478140		7.92878622		 0.00008405		-0.00019915		-0.00034553	
Mg		-0.27894087		9.55071801		2.94586821		 0.00008405		 0.00019915		-0.00034553	
Mg		7.63144622		4.54628230		6.17292700		-0.00008405		-0.00019915		 0.00034553	
O		3.11057239		1.06009448		6.25095919		-0.00008418		 0.00009777		 0.00009896	
O		4.24193402		13.03690477		2.86783708		 0.00008418		-0.00009777		-0.00009896	
O		2.62418617		8.10859464		7.85075403		 0.00008418		 0.00009777		-0.00009896	
O		4.72831918		5.98840567		1.26804118		-0.00008418		-0.00009777		 0.00009896	
O		5.36213742		1.22502915		4.04886638		 0.00031155		 0.00005714		-0.00030002	
O		1.99036686		12.87197116		5.06992883		-0.00031155		-0.00005714		 0.00030002	
O		3.60811472		8.27352931		0.08701189		-0.00031155		 0.00005714		 0.00030002	
O		3.74438957		5.82347100		9.03178332		 0.00031155		-0.00005714		-0.00030002	
O		6.43987689		3.38328037		5.04303543		-0.00004664		-0.00002170		-0.00003275	
O		0.91262740		10.71371994		4.07575978		 0.00004664		 0.00002170		 0.00003275	
O		-0.70512045		10.43177947		9.05867779		 0.00004664		-0.00002170		 0.00003275	
O		8.05762474		3.66521978		0.06011848		-0.00004664		 0.00002170		-0.00003275	
O		5.93205051		1.20952341		6.60086449		 0.00042088		 0.00024465		 0.00021402	
O		1.42045272		12.88747796		2.51792966		-0.00042088		-0.00024465		-0.00021402	
O		-0.19729407		8.25802250		7.50084767		-0.00042088		 0.00024465		-0.00021402	
O		7.54979836		5.83897781		1.61794754		 0.00042088		-0.00024465		 0.00021402	
O		0.90377624		3.41852253		4.05219951		-0.00001223		 0.00003843		-0.00018165	
O		6.44872912		10.67847672		5.06659464		 0.00001223		-0.00003843		 0.00018165	
O		8.06647697		10.46702269		0.08367663		 0.00001223		 0.00003843		 0.00018165	
O		-0.71397162		3.62997656		9.03511752		-0.00001223		-0.00003843		-0.00018165	
O		2.43307613		1.23348731		3.53478162		 0.00021385		-0.00040593		-0.00029757	
O		4.91942816		12.86351300		5.58401359		-0.00021385		 0.00040593		 0.00029757	
O		6.53717601		8.28198641		0.60109558		-0.00021385		-0.00040593		 0.00029757	
O		0.81532934		5.81501178		8.51769857		 0.00021385		 0.00040593		-0.00029757	
O		0.34595079		1.22784925		5.61791315		-0.00010640		-0.00029736		-0.00024221	
O		7.00655350		12.86915106		3.50088312		 0.00010640		 0.00029736		 0.00024221	
O		5.38880565		8.27634834		8.48380007		 0.00010640		-0.00029736		 0.00024221	
O		1.96369864		5.82065091		0.63499514		-0.00010640		 0.00029736		-0.00024221	
O		-0.17258345		1.24194548		3.09189497		 0.00031077		 0.00050168		-0.00012473	
O		7.52508668		12.85505377		6.02690130		-0.00031077		-0.00050168		 0.00012473	
O		9.14283453		8.29044563		1.04398329		-0.00031077		 0.00050168		 0.00012473	
O		-1.79033024		5.80655362		8.07481298		 0.00031077		-0.00050168		-0.00012473	
O		3.56980603		3.40160621		4.85232795		-0.00004669		-0.00021238		-0.00006651	
O		3.78269932		10.69539410		4.26646726		 0.00004669		 0.00021238		 0.00006651	
O		2.16495147		10.45010530		9.24938526		 0.00004669		-0.00021238		 0.00006651	
O		5.18755282		3.64689394		-0.13059006		-0.00004669		 0.00021238		-0.00006651	
O		4.04566815		3.36354395		7.24294970		-0.00009444		 0.00020220		 0.00008895	
O		3.30683721		10.73345529		1.87584551		 0.00009444		-0.00020220		-0.00008895	
O		1.68908935		10.41204517		6.85876245		 0.00009444		 0.00020220		-0.00008895	
O		5.66341600		3.68495620		2.26003169		-0.00009444		-0.00020220		 0.00008895	
O		4.73928940		1.19965467		1.29143045		-0.00021946		 0.00012680		 0.00009674	
O		2.61321595		12.89734458		7.82736476		 0.00021946		-0.00012680		-0.00009674	
O		4.23096380		8.24815483		2.84444676		 0.00021946		 0.00012680		-0.00009674	
O		3.12154049		5.84884442		6.27434845		-0.00021946		-0.00012680		 0.00009674	
O		3.92123556		1.04881729		9.10014540		-0.00015548		-0.00013160		-0.00010007	
O		3.43126766		13.04818302		0.01864980		 0.00015548		 0.00013160		 0.00010007	
O		1.81352087		8.09731638		5.00156781		 0.00015548		-0.00013160		 0.00010007	
O		5.53898341		5.99968287		4.11722740		-0.00015548		 0.00013160		-0.00010007	
O		7.68494624		1.06714313		1.51297840		-0.00000831		-0.00008700		-0.00006046	
O		-0.33244089		13.02985719		7.60581788		 0.00000831		 0.00008700		 0.00006046	
O		1.28530696		8.11564328		2.62289987		 0.00000831		-0.00008700		 0.00006046	
O		6.06719839		5.98135703		6.49589534		-0.00000831		 0.00008700		-0.00006046	
O		-1.74583328		1.00652648		8.11881815		 0.00040870		 0.00039106		-0.00029146	
O		9.09833757		13.09047383		0.99997813		-0.00040870		-0.00039106		 0.00029146	
O		7.48058972		8.05502558		5.98289613		-0.00040870		 0.00039106		 0.00029146	
O		-0.12808543		6.04197367		3.13590014		 0.00040870		-0.00039106		-0.00029146	
O		9.63163190		1.12212064		-0.49970493		-0.00016515		-0.00056133		-0.00000234	
O		-2.27912655		12.97487861		9.61850120		 0.00016515		 0.00056133		 0.00000234	
O		-0.66137870		8.17062080		4.63558319		 0.00016515		-0.00056133		 0.00000234	
O		8.01388405		5.92637845		4.48321202		-0.00016515		 0.00056133		-0.00000234	
O		0.66733223		1.03472000		8.52565644		-0.00028099		-0.00028941		-0.00011089	
O		6.68517312		13.06227925		0.59313877		 0.00028099		 0.00028941		 0.00011089	
O		5.06742633		8.08322015		5.57605678		 0.00028099		-0.00028941		 0.00011089	
O		2.28508009		6.01378016		3.54273843		-0.00028099		 0.00028941		-0.00011089	
O		1.98073074		1.02767135		0.53170849		 0.00027490		-0.00012948		-0.00029703	
O		5.37177355		13.06932896		8.58708671		-0.00027490		 0.00012948		 0.00029703	
O		6.98952140		8.07617045		3.60416871		-0.00027490		-0.00012948		 0.00029703	
O		0.36298289		6.02082880		5.51462650		 0.00027490		 0.00012948		-0.00029703	
O		1.65338621		3.37200212		6.81308435		 0.00004036		-0.00019320		-0.00013986	
O		5.69912021		10.72499820		2.30571086		-0.00004036		 0.00019320		 0.00013986	
O		4.08137236		10.42050227		7.28862887		-0.00004036		-0.00019320		 0.00013986	
O		3.27113299		3.67649804		1.83016740		 0.00004036		 0.00019320		-0.00013986	
O		7.94206138		1.20106419		4.49478237		 0.00011733		 0.00000180		 0.00004949	
O		-0.58955709		12.89593612		4.62401284		-0.00011733		-0.00000180		-0.00004949	
O		-2.20730388		8.24956434		9.60693084		-0.00011733		 0.00000180		-0.00004949	
O		9.55980923		5.84743491		-0.48813457		 0.00011733		-0.00000180		 0.00004949	
O		-1.34599690		3.49182695		6.29006557		 0.00036177		-0.00037946		-0.00004938	
O		8.69850225		10.60517336		2.82872964		-0.00036177		 0.00037946		 0.00004938	
O		7.08075333		10.54032711		7.81164765		-0.00036177		-0.00037946		 0.00004938	
O		0.27175095		3.55667321		1.30714756		 0.00036177		 0.00037946		-0.00004938	
O		8.58262130		3.49746608		2.84576599		 0.00019669		 0.00042216		-0.00065460	
O		-1.23011701		10.59953423		6.27302922		-0.00019669		-0.00042216		 0.00065460	
O		0.38763084		10.54596623		1.29011228		-0.00019669		 0.00042216		 0.00065460	
O		6.96487345		3.55103514		7.82868399		 0.00019669		-0.00042216		-0.00065460	
H		-1.67659702		2.72072052		5.95832572		-0.00012023		 0.00000753		 0.00000154	
H		9.02910131		11.37627872		3.16046949		 0.00012023		-0.00000753		-0.00000154	
H		7.41135452		9.76922068		8.14338749		 0.00012023		 0.00000753		-0.00000154	
H		-0.05885023		4.32777857		0.97540771		-0.00012023		-0.00000753		 0.00000154	
H		8.37381742		2.87578752		3.36820481		 0.00035424		 0.00000957		 0.00021321	
H		-1.02131313		11.22121173		5.75059040		-0.00035424		-0.00000957		-0.00021321	
H		0.59643472		9.92428768		0.76767345		-0.00035424		 0.00000957		-0.00021321	
H		6.75606957		4.17271157		8.35112282		 0.00035424		-0.00000957		 0.00021321	
