# total energy = -117590.827282 eV	

CRYSTAL	
PRIMVEC	
		10.58799680		0.00000000		0.84703762	
		0.00000000		14.09700244		0.00000000	
		-1.67237485		0.00000000		9.57320867	
PRIMCOORD
   156 1	
Si		8.24125489		0.01395602		1.37907433		 0.00000481		-0.00016188		 0.00020359	
Si		0.67437344		14.08304323		9.04117196		-0.00000481		 0.00016188		-0.00020359	
Si		1.51055874		7.06245617		4.25456869		-0.00000481		-0.00016188		-0.00020359	
Si		7.40506853		7.03454414		6.16567654		 0.00000481		 0.00016188		 0.00020359	
Si		4.14137187		2.67335461		6.86974755		 0.00014962		 0.00003522		-0.00007708	
Si		4.77425646		11.42364464		3.55049768		-0.00014962		-0.00003522		 0.00007708	
Si		3.93807116		9.72185477		8.33710095		-0.00014962		 0.00003522		 0.00007708	
Si		4.97755823		4.37514448		2.08314534		 0.00014962		-0.00003522		-0.00007708	
Si		1.54537072		1.76917262		4.26609018		 0.00029467		-0.00026446		-0.00010930	
Si		7.37025655		12.32782663		6.15415610		-0.00029467		 0.00026446		 0.00010930	
Si		8.20644291		8.81767278		1.36755283		-0.00029467		-0.00026446		 0.00010930	
Si		0.70918542		5.27932647		9.05269239		 0.00029467		 0.00026446		-0.00010930	
Si		7.31307713		1.73858282		6.14715526		-0.00038283		-0.00012694		 0.00014762	
Si		1.60255226		12.35841643		4.27309103		 0.00038283		 0.00012694		-0.00014762	
Si		0.76636590		8.78708298		9.05969430		 0.00038283		-0.00012694		-0.00014762	
Si		8.14926243		5.30991733		1.36055199		-0.00038283		 0.00012694		 0.00014762	
Mg		4.45781417		0.00000000		5.21012314		0.00000000		0.00000000		0.00000000	
Mg		5.29399946		7.04850016		0.42351987		0.00000000		0.00000000		0.00000000	
Mg		4.67426576		2.46006832		3.83341748		 0.00057504		-0.00010382		-0.00012221	
Mg		4.24136151		11.63693306		6.58682880		-0.00057504		 0.00010382		 0.00012221	
Mg		5.07754787		9.50856741		1.80022553		-0.00057504		-0.00010382		 0.00012221	
Mg		3.83807940		4.58843290		8.62002075		 0.00057504		 0.00010382		-0.00012221	
Mg		5.29399946		0.00000000		0.42351987		0.00000000		0.00000000		0.00000000	
Mg		4.45781417		7.04850016		5.21012314		0.00000000		0.00000000		0.00000000	
Mg		6.42075972		0.03510195		3.35916989		 0.00011532		 0.00006098		-0.00051242	
Mg		2.49486755		14.06189836		7.06107640		-0.00011532		-0.00006098		 0.00051242	
Mg		3.33105391		7.08360105		2.27447419		-0.00011532		 0.00006098		 0.00051242	
Mg		5.58457336		7.01339820		8.14577316		 0.00011532		-0.00006098		-0.00051242	
Mg		0.54081884		0.00493384		1.52261239		 0.00001623		-0.00008638		-0.00049669	
Mg		8.37480843		14.09206541		8.89763389		-0.00001623		 0.00008638		 0.00049669	
Mg		9.21099479		7.05343399		4.11103062		-0.00001623		-0.00008638		 0.00049669	
Mg		-0.29536646		7.04356632		6.30921460		 0.00001623		 0.00008638		-0.00049669	
Mg		-0.37231523		0.00493384		6.13143920		-0.00022261		-0.00009741		 0.00034776	
Mg		9.28794250		14.09206541		4.28880708		 0.00022261		 0.00009741		-0.00034776	
Mg		8.45175720		7.05343399		9.07540929		 0.00022261		-0.00009741		-0.00034776	
Mg		0.46387113		7.04356632		1.34483593		-0.00022261		 0.00009741		 0.00034776	
Mg		3.36242760		0.03904902		2.36036654		-0.00061821		-0.00023488		 0.00034217	
Mg		5.55319967		14.05795023		8.05987975		 0.00061821		 0.00023488		-0.00034217	
Mg		6.38938603		7.08754918		3.27327648		 0.00061821		-0.00023488		-0.00034217	
Mg		2.52624230		7.00945113		7.14696874		-0.00061821		 0.00023488		 0.00034217	
Mg		6.66774907		2.39564375		1.73330165		 0.00029858		 0.00014252		-0.00016411	
Mg		2.24787926		11.70135550		8.68694358		-0.00029858		-0.00014252		 0.00016411	
Mg		3.08406456		9.44414390		3.90034243		-0.00029858		 0.00014252		 0.00016411	
Mg		5.83156271		4.65285641		6.51990492		 0.00029858		-0.00014252		-0.00016411	
Mg		-0.88002583		2.43920386		9.34256843		 0.00001280		-0.00008450		 0.00000748	
Mg		9.79565522		11.65779539		1.07767679		-0.00001280		 0.00008450		-0.00000748	
Mg		8.95946886		9.48770402		5.86428006		-0.00001280		-0.00008450		-0.00000748	
Mg		-0.04384053		4.60929629		4.55596622		 0.00001280		 0.00008450		 0.00000748	
Mg		1.05664557		2.49798824		7.38390135		 0.00023469		 0.00011008		-0.00042527	
Mg		7.85898276		11.59901101		3.03634494		-0.00023469		-0.00011008		 0.00042527	
Mg		7.02279640		9.54648840		7.82294821		-0.00023469		 0.00011008		 0.00042527	
Mg		1.89283194		4.55051085		2.59729808		 0.00023469		-0.00011008		-0.00042527	
Mg		6.70344372		2.48008515		9.22267774		-0.00027798		-0.00034526		 0.00029621	
Mg		2.21218355		11.61691516		1.19756748		 0.00027798		 0.00034526		-0.00029621	
Mg		1.37599825		9.52858531		5.98417075		 0.00027798		-0.00034526		-0.00029621	
Mg		7.53963008		4.56841500		4.43607447		-0.00027798		 0.00034526		 0.00029621	
Mg		3.64053997		2.37633114		0.72902912		-0.00057340		 0.00004482		-0.00030472	
Mg		5.27508730		11.72066917		9.69121823		 0.00057340		-0.00004482		 0.00030472	
Mg		6.11127260		9.42483130		4.90461390		 0.00057340		 0.00004482		 0.00030472	
Mg		2.80435361		4.67216901		5.51563239		-0.00057340		-0.00004482		-0.00030472	
Mg		9.55997387		2.50221679		2.69474272		-0.00008890		-0.00000831		 0.00022082	
Mg		-0.64434554		11.59478140		7.72550250		 0.00008890		 0.00000831		-0.00022082	
Mg		0.19184082		9.55071801		2.93890029		 0.00008890		-0.00000831		-0.00022082	
Mg		8.72378751		4.54628230		7.48134599		-0.00008890		 0.00000831		 0.00022082	
O		4.15723876		1.06009448		6.83238421		 0.00007390		-0.00013350		-0.00016014	
O		4.75838957		13.03690477		3.58786314		-0.00007390		 0.00013350		 0.00016014	
O		3.92220321		8.10859464		8.37446535		-0.00007390		-0.00013350		 0.00016014	
O		4.99342512		5.98840567		2.04578094		 0.00007390		 0.00013350		-0.00016014	
O		6.08320548		1.22502915		4.96449339		-0.00005081		-0.00025635		-0.00000817	
O		2.83242179		12.87197116		5.45575184		 0.00005081		 0.00025635		 0.00000817	
O		3.66860815		8.27352931		0.66914963		 0.00005081		-0.00025635		 0.00000817	
O		5.24702018		5.82347100		9.75109666		-0.00005081		 0.00025635		-0.00000817	
O		7.33492198		3.38328037		6.14502027		 0.00027697		-0.00006658		 0.00004130	
O		1.58070635		10.71371994		4.27522602		-0.00027697		 0.00006658		-0.00004130	
O		0.74451999		10.43177947		9.06182929		-0.00027697		-0.00006658		-0.00004130	
O		8.17110834		3.66521978		1.35841700		 0.00027697		 0.00006658		 0.00004130	
O		7.07141144		1.20952341		7.64114182		-0.00007303		-0.00027060		 0.00019420	
O		1.84421583		12.88747796		2.77910446		 0.00007303		 0.00027060		-0.00019420	
O		1.00802947		8.25802250		7.56570667		 0.00007303		-0.00027060		-0.00019420	
O		7.90759780		5.83897781		2.85453855		-0.00007303		 0.00027060		 0.00019420	
O		1.56794741		3.41852253		4.24993757		-0.00049795		-0.00015801		 0.00027312	
O		7.34768092		10.67847672		6.17030765		 0.00049795		 0.00015801		-0.00027312	
O		8.18386728		10.46702269		1.38370545		 0.00049795		-0.00015801		-0.00027312	
O		0.73176105		3.62997656		9.03654084		-0.00049795		 0.00015801		 0.00027312	
O		3.03362787		1.23348731		3.97211836		 0.00053625		 0.00012862		 0.00000197	
O		5.88199939		12.86351300		6.44812792		-0.00053625		-0.00012862		-0.00000197	
O		6.71818576		8.28198641		1.66152465		-0.00053625		 0.00012862		-0.00000197	
O		2.19744151		5.81501178		8.75872057		 0.00053625		-0.00012862		 0.00000197	
O		1.25506449		1.22784925		5.74599433		-0.00035554		 0.00006932		-0.00024811	
O		7.66056490		12.86915106		4.67425195		 0.00035554		-0.00006932		 0.00024811	
O		6.82437854		8.27634834		9.46085522		 0.00035554		 0.00006932		 0.00024811	
O		2.09124979		5.82065091		0.95939106		-0.00035554		-0.00006932		-0.00024811	
O		0.32308412		1.24194548		3.10393481		-0.00029124		-0.00000023		 0.00034634	
O		8.59254421		12.85505377		7.31631041		 0.00029124		 0.00000023		-0.00034634	
O		9.42872951		8.29044563		2.52970820		 0.00029124		-0.00000023		-0.00034634	
O		-0.51310224		5.80655362		7.89053808		-0.00029124		 0.00000023		 0.00034634	
O		4.39716672		3.40160621		5.48968539		-0.00013741		-0.00020682		-0.00009563	
O		4.51846055		10.69539410		4.93055983		 0.00013741		 0.00020682		 0.00009563	
O		3.68227525		10.45010530		9.71716310		 0.00013741		-0.00020682		 0.00009563	
O		5.23335308		3.64689394		0.70308318		-0.00013741		 0.00020682		-0.00009563	
O		5.26412239		3.36354395		7.98773311		 0.00015245		 0.00028394		-0.00003781	
O		3.65150594		10.73345529		2.43251317		-0.00015245		-0.00028394		 0.00003781	
O		2.81531958		10.41204517		7.21911538		-0.00015245		 0.00028394		 0.00003781	
O		6.10030875		3.68495620		3.20112984		 0.00015245		-0.00028394		-0.00003781	
O		5.00830205		1.19965467		2.07123827		-0.00007841		 0.00008190		-0.00013473	
O		3.90732628		12.89734458		8.34900801		 0.00007841		-0.00008190		 0.00013473	
O		4.74351158		8.24815483		3.56240474		 0.00007841		 0.00008190		 0.00013473	
O		4.17211569		5.84884442		6.85784048		-0.00007841		-0.00008190		-0.00013473	
O		5.43715302		1.04881729		9.84881641		 0.00001227		-0.00013051		 0.00023028	
O		3.47847531		13.04818302		0.57142882		-0.00001227		 0.00013051		-0.00023028	
O		2.64228895		8.09731638		5.35803209		-0.00001227		-0.00013051		-0.00023028	
O		6.27333938		5.99968287		5.06221420		 0.00001227		 0.00013051		 0.00023028	
O		8.02758302		1.06714313		2.76998031		 0.00032236		-0.00015265		 0.00037454	
O		0.88804531		13.02985719		7.65026597		-0.00032236		 0.00015265		-0.00037454	
O		1.72423167		8.11564328		2.86366270		-0.00032236		-0.00015265		-0.00037454	
O		7.19139666		5.98135703		7.55658252		 0.00032236		 0.00015265		 0.00037454	
O		-0.46094482		1.00652648		7.94227488		 0.00002980		-0.00012825		-0.00029598	
O		9.37657421		13.09047383		2.47797141		-0.00002980		 0.00012825		 0.00029598	
O		8.54038679		8.05502558		7.26457362		-0.00002980		-0.00012825		 0.00029598	
O		0.37524048		6.04197367		3.15567161		 0.00002980		 0.00012825		-0.00029598	
O		9.67524300		1.12212064		1.04484472		-0.00030315		-0.00027215		-0.00010356	
O		-0.75961467		12.97487861		9.37540156		 0.00030315		 0.00027215		 0.00010356	
O		0.07657063		8.17062080		4.58879829		 0.00030315		-0.00027215		 0.00010356	
O		8.83905664		5.92637845		5.83144693		-0.00030315		 0.00027215		-0.00010356	
O		2.04881984		1.03472000		8.74294928		 0.00008480		 0.00031274		-0.00010144	
O		6.86680743		13.06227925		1.67729700		-0.00008480		-0.00031274		 0.00010144	
O		6.03062213		8.08322015		6.46390027		-0.00008480		 0.00031274		 0.00010144	
O		2.88500620		6.01378016		3.95634601		 0.00008480		-0.00031274		-0.00010144	
O		2.09186905		1.02767135		0.85751711		 0.00000440		 0.00000059		 0.00036921	
O		6.82375928		13.06932896		9.56272917		-0.00000440		-0.00000059		-0.00036921	
O		7.65994458		8.07617045		4.77612590		-0.00000440		 0.00000059		-0.00036921	
O		1.25568269		6.02082880		5.64412039		 0.00000440		-0.00000059		 0.00036921	
O		2.77179983		3.37200212		7.16710029		 0.00013695		-0.00031880		-0.00027692	
O		6.14382744		10.72499820		3.25314705		-0.00013695		 0.00031880		 0.00027692	
O		5.30764214		10.42050227		8.03975033		-0.00013695		-0.00031880		 0.00027692	
O		3.60798619		3.67649804		2.38049596		 0.00013695		 0.00031880		-0.00027692	
O		8.76817188		1.20106419		5.83160095		-0.00039052		 0.00029208		 0.00026715	
O		0.14745646		12.89593612		4.58864534		 0.00039052		-0.00029208		-0.00026715	
O		-0.68872991		8.24956434		9.37524755		 0.00039052		 0.00029208		-0.00026715	
O		9.60435824		5.84743491		1.04499768		-0.00039052		-0.00029208		 0.00026715	
O		-0.35044382		3.49182695		6.15434942		-0.00028700		-0.00008544		-0.00021793	
O		9.26607216		10.60517336		4.26589580		 0.00028700		 0.00008544		 0.00021793	
O		8.42988579		10.54032711		9.05249907		 0.00028700		-0.00008544		 0.00021793	
O		0.48574147		3.55667321		1.36774721		-0.00028700		 0.00008544		-0.00021793	
O		9.15144246		3.49746608		4.26449054		-0.00020262		 0.00063330		-0.00074639	
O		-0.23581413		10.59953423		6.15575469		 0.00020262		-0.00063330		 0.00074639	
O		0.60037223		10.54596623		1.36915248		 0.00020262		 0.00063330		 0.00074639	
O		8.31525716		3.55103514		9.05109381		-0.00020262		-0.00063330		-0.00074639	
H		-0.73872260		2.72072052		5.76509981		 0.00053884		-0.00040880		-0.00075324	
H		9.65435199		11.37627872		4.65514541		-0.00053884		 0.00040880		 0.00075324	
H		8.81816563		9.76922068		9.44174868		-0.00053884		-0.00040880		 0.00075324	
H		0.09746270		4.32777857		0.97849654		 0.00053884		 0.00040880		-0.00075324	
H		9.02407719		2.87578752		4.76003702		-0.00015648		-0.00027907		 0.00073885	
H		-0.10844886		11.22121173		5.66021033		 0.00015648		 0.00027907		-0.00073885	
H		0.72773750		9.92428768		0.87360706		 0.00015648		-0.00027907		-0.00073885	
H		8.18789083		4.17271157		9.54664029		-0.00015648		 0.00027907		 0.00073885	
