# total energy = -117567.150485 eV	

CRYSTAL	
PRIMVEC	
		10.58800397		0.00000000		-1.69408535	
		0.00000000		14.09699772		0.00000000	
		-4.01705530		0.00000000		10.16215313	
PRIMCOORD
   156 1	
Si		8.06739698		0.01395555		-0.58491843		-0.00006314		 0.00018430		 0.00007182	
Si		-1.49645261		14.08304431		9.05298835		 0.00006314		-0.00018430		-0.00007182	
Si		0.51207504		7.06245549		3.97191286		 0.00006314		 0.00018430		-0.00007182	
Si		6.05886826		7.03454438		4.49615706		-0.00006314		-0.00018430		 0.00007182	
Si		2.56203938		2.67335463		6.00216464		 0.00011772		-0.00029608		 0.00013032	
Si		4.00890500		11.42364523		2.46590528		-0.00011772		 0.00029608		-0.00013032	
Si		2.00037628		9.72185456		7.54697970		-0.00011772		-0.00029608		-0.00013032	
Si		4.57056703		4.37514530		0.92109022		 0.00011772		 0.00029608		 0.00013032	
Si		0.54477704		1.76917299		3.97524868		 0.00016785		 0.00005150		-0.00001753	
Si		6.02616626		12.32782687		4.49282124		-0.00016785		-0.00005150		 0.00001753	
Si		8.03469498		8.81767292		-0.58825425		-0.00016785		 0.00005150		 0.00001753	
Si		-1.46375168		5.27932694		9.05632417		 0.00016785		-0.00005150		-0.00001753	
Si		5.96957201		1.73858336		4.49949717		 0.00070954		 0.00007572		 0.00032682	
Si		0.60137130		12.35841650		3.96857275		-0.00070954		-0.00007572		-0.00032682	
Si		-1.40715743		8.78708329		9.04964824		-0.00070954		 0.00007572		-0.00032682	
Si		7.97810073		5.30991657		-0.58157832		 0.00070954		-0.00007572		 0.00032682	
Mg		3.28547219		0.00000000		4.23403496		0.00000000		0.00000000		0.00000000	
Mg		5.29399984		7.04849993		-0.84704053		-0.00000000		0.00000000		-0.00000000	
Mg		3.83864401		2.46006786		2.77844323		 0.00020157		-0.00022158		 0.00011225	
Mg		2.73229929		11.63693307		5.68962669		-0.00020157		 0.00022158		-0.00011225	
Mg		4.74082802		9.50856779		0.60855227		-0.00020157		-0.00022158		-0.00011225	
Mg		1.83011529		4.58843314		7.85951872		 0.00020157		 0.00022158		 0.00011225	
Mg		5.29399984		0.00000000		-0.84704053		0.00000000		-0.00000000		0.00000000	
Mg		3.28547219		7.04849993		4.23403496		-0.00000000		0.00000000		-0.00000000	
Mg		5.73343952		0.03510173		1.87317324		 0.00036574		-0.00012385		-0.00020829	
Mg		0.83750379		14.06189920		6.59489668		-0.00036574		 0.00012385		 0.00020829	
Mg		2.84603251		7.08360059		1.51382226		-0.00036574		-0.00012385		 0.00020829	
Mg		3.72491079		7.01339820		6.95424766		 0.00036574		 0.00012385		-0.00020829	
Mg		0.18348847		0.00493350		1.42140249		-0.00008781		 0.00049458		 0.00039193	
Mg		6.38745376		14.09206636		7.04666850		 0.00008781		-0.00049458		-0.00039193	
Mg		8.39598248		7.05343450		1.96559301		 0.00008781		 0.00049458		-0.00039193	
Mg		-1.82504025		7.04356643		6.50247691		-0.00008781		-0.00049458		 0.00039193	
Mg		-1.86053443		0.00493350		6.33985261		-0.00016357		 0.00005316		-0.00005199	
Mg		8.43147666		14.09206636		2.12821838		 0.00016357		-0.00005316		 0.00005199	
Mg		6.42294794		7.05343450		7.20929280		 0.00016357		 0.00005316		 0.00005199	
Mg		0.14799536		7.04356643		1.25877712		-0.00016357		-0.00005316		-0.00005199	
Mg		2.85726558		0.03904875		1.59379729		 0.00041202		 0.00011364		 0.00013097	
Mg		3.71367665		14.05795111		6.87427370		-0.00041202		-0.00011364		-0.00013097	
Mg		5.72220645		7.08754868		1.79319821		-0.00041202		 0.00011364		-0.00013097	
Mg		0.84873686		7.00945118		6.67487171		 0.00041202		-0.00011364		 0.00013097	
Mg		6.37792345		2.39564391		0.15622823		-0.00011062		 0.00020109		-0.00042679	
Mg		0.19302093		11.70135595		8.31184169		 0.00011062		-0.00020109		 0.00042679	
Mg		2.20154858		9.44414384		3.23076727		 0.00011062		 0.00020109		 0.00042679	
Mg		4.36939366		4.65285602		5.23730265		-0.00011062		-0.00020109		-0.00042679	
Mg		-3.15369057		2.43920369		9.73566751		 0.00038320		 0.00000619		 0.00039885	
Mg		9.72463388		11.65779617		-1.26759759		-0.00038320		-0.00000619		-0.00039885	
Mg		7.71610623		9.48770362		3.81347683		-0.00038320		 0.00000619		-0.00039885	
Mg		-1.14516185		4.60929624		4.65459309		 0.00038320		-0.00000619		 0.00039885	
Mg		-0.70648670		2.49798751		7.27135669		-0.00012404		 0.00018096		 0.00002862	
Mg		7.27743001		11.59901128		1.19671323		 0.00012404		-0.00018096		-0.00002862	
Mg		5.26890236		9.54648851		6.27778765		 0.00012404		 0.00018096		-0.00002862	
Mg		1.30204095		4.55051135		2.19028227		-0.00012404		-0.00018096		 0.00002862	
Mg		4.60527953		2.48008494		7.78170538		 0.00052807		 0.00007277		 0.00002344	
Mg		1.96566378		11.61691492		0.68636454		-0.00052807		-0.00007277		-0.00002344	
Mg		-0.04286387		9.52858594		5.76744110		-0.00052807		 0.00007277		-0.00002344	
Mg		6.61380825		4.56841499		2.70062989		 0.00052807		-0.00007277		 0.00002344	
Mg		3.53479464		2.37633131		-0.13624117		 0.00003111		-0.00004684		 0.00002954	
Mg		3.03614759		11.72066855		8.60431216		-0.00003111		 0.00004684		-0.00002954	
Mg		5.04467632		9.42483124		3.52323560		-0.00003111		-0.00004684		-0.00002954	
Mg		1.52626699		4.67216862		4.94483432		 0.00003111		 0.00004684		 0.00002954	
Mg		9.09380312		2.50221653		0.43764256		 0.00027077		-0.00022301		-0.00033088	
Mg		-2.52285982		11.59478226		8.03042736		-0.00027077		 0.00022301		 0.00033088	
Mg		-0.51433217		9.55071753		2.94935187		-0.00027077		-0.00022301		 0.00033088	
Mg		7.08527547		4.54628233		5.51871805		 0.00027077		 0.00022301		-0.00033088	
O		2.58723765		1.06009355		5.96024650		-0.00010031		-0.00008057		 0.00014129	
O		3.98370565		13.03690524		2.50782449		 0.00010031		 0.00008057		-0.00014129	
O		1.97517693		8.10859455		7.58889891		 0.00010031		-0.00008057		-0.00014129	
O		4.59576638		5.98840638		0.87917101		-0.00010031		 0.00008057		 0.00014129	
O		5.00160335		1.22502859		3.59105220		 0.00012689		-0.00016990		-0.00021954	
O		1.56933995		12.87197127		4.87701772		-0.00012689		 0.00016990		 0.00021954	
O		3.57786868		8.27352852		-0.20405670		-0.00012689		-0.00016990		 0.00021954	
O		2.99307463		5.82347134		8.67212769		 0.00012689		 0.00016990		-0.00021954	
O		5.99235554		3.38328010		4.49204384		-0.00037732		 0.00002382		 0.00009981	
O		0.57858777		10.71371977		3.97602607		 0.00037732		-0.00002382		-0.00009981	
O		-1.42994096		10.43178003		9.05710157		 0.00037732		 0.00002382		-0.00009981	
O		8.00088426		3.66521983		-0.58903057		-0.00037732		-0.00002382		 0.00009981	
O		5.36237080		1.20952253		6.08072750		 0.00026129		-0.00063931		-0.00016093	
O		1.20857251		12.88747840		2.38734350		-0.00026129		 0.00063931		 0.00016093	
O		-0.79995729		8.25802354		7.46841899		-0.00026129		-0.00063931		 0.00016093	
O		7.37089952		5.83897847		0.99965200		 0.00026129		 0.00063931		-0.00016093	
O		0.57168987		3.41852337		3.95333154		 0.00016717		-0.00008377		 0.00054325	
O		5.99925343		10.67847649		4.51473945		-0.00016717		 0.00008377		-0.00054325	
O		8.00778215		10.46702330		-0.56633604		-0.00016717		-0.00008377		-0.00054325	
O		-1.43683778		3.62997656		9.03440704		 0.00016717		 0.00008377		 0.00054325	
O		2.13280018		1.23348663		3.31611436		 0.00009870		 0.00015687		 0.00038321	
O		4.43814205		12.86351323		5.15195663		-0.00009870		-0.00015687		-0.00038321	
O		6.44667078		8.28198656		0.07088221		-0.00009870		 0.00015687		-0.00038321	
O		0.12427253		5.81501223		8.39718771		 0.00009870		-0.00015687		 0.00038321	
O		-0.10860456		1.22784865		5.55387232		 0.00045374		 0.00013288		-0.00030138	
O		6.67954894		12.86915121		2.91419760		-0.00045374		-0.00013288		 0.00030138	
O		4.67102022		8.27634858		7.99527309		-0.00045374		 0.00013288		 0.00030138	
O		1.89992309		5.82065128		0.47279683		 0.00045374		-0.00013288		-0.00030138	
O		-0.42041552		1.24194574		3.08587505		-0.00045281		-0.00003210		 0.00002060	
O		6.99135882		12.85505412		5.38219487		 0.00045281		 0.00003210		-0.00002060	
O		8.99988754		8.29044567		0.30112045		 0.00045281		-0.00003210		-0.00002060	
O		-2.42894424		5.80655419		8.16695054		-0.00045281		 0.00003210		 0.00002060	
O		3.15612462		3.40160621		4.53364888		-0.00084811		 0.00010303		-0.00007206	
O		3.41481761		10.69539365		3.93442104		 0.00084811		-0.00010303		 0.00007206	
O		1.40628996		10.45010614		9.01549653		 0.00084811		 0.00010303		 0.00007206	
O		5.16465441		3.64689372		-0.54742554		-0.00084811		-0.00010303		-0.00007206	
O		3.43644095		3.36354395		6.87055829		 0.00028442		 0.00022046		 0.00035118	
O		3.13450343		10.73345591		1.59751163		-0.00028442		-0.00022046		-0.00035118	
O		1.12597363		10.41204495		6.67858712		-0.00028442		 0.00022046		-0.00035118	
O		5.44496860		3.68495598		1.78948280		 0.00028442		-0.00022046		 0.00035118	
O		4.60478200		1.19965553		0.90152671		 0.00024679		 0.00024474		 0.00013150	
O		1.96616131		12.89734540		7.56654321		-0.00024679		-0.00024474		-0.00013150	
O		3.97469003		8.24815546		2.48546772		-0.00024679		 0.00024474		-0.00013150	
O		2.59625328		5.84884547		5.98260220		 0.00024679		-0.00024474		 0.00013150	
O		3.16327771		1.04881652		8.72580967		-0.00021502		-0.00021207		 0.00032971	
O		3.40766452		13.04818334		-0.25773975		 0.00021502		 0.00021207		-0.00032971	
O		1.39913687		8.09731752		4.82333467		 0.00021502		-0.00021207		-0.00032971	
O		5.17180644		5.99968341		3.64473525		-0.00021502		 0.00021207		 0.00032971	
O		7.51362791		1.06714263		0.88447659		 0.00077175		 0.00004256		-0.00049419	
O		-0.94268460		13.02985723		7.58359333		-0.00077175		-0.00004256		 0.00049419	
O		1.06584412		8.11564256		2.50251784		-0.00077175		 0.00004256		 0.00049419	
O		5.50509919		5.98135730		5.96555208		 0.00077175		-0.00004256		-0.00049419	
O		-2.38827744		1.00652631		8.20708871		 0.00001968		-0.00019502		-0.00020800	
O		8.95921967		13.09047355		0.26098228		-0.00001968		 0.00019502		 0.00020800	
O		6.95069095		8.05502624		5.34205670		-0.00001968		-0.00019502		 0.00020800	
O		-0.37974765		6.04197362		3.12601429		 0.00001968		 0.00019502		-0.00020800	
O		9.60982625		1.12212098		-1.27197994		-0.00000969		 0.00020280		 0.00008117	
O		-3.03888295		12.97487888		9.74005093		 0.00000969		-0.00020280		-0.00008117	
O		-1.03035423		8.17062091		4.65897544		 0.00000969		 0.00020280		-0.00008117	
O		7.60129753		5.92637895		3.80909448		-0.00000969		-0.00020280		 0.00008117	
O		-0.02341188		1.03472050		8.41701071		 0.00042137		-0.00023147		 0.00018482	
O		6.59435625		13.06228044		0.05106028		-0.00042137		 0.00023147		-0.00018482	
O		4.58582753		8.08322043		5.13213470		-0.00042137		-0.00023147		-0.00018482	
O		1.98511577		6.01378051		3.33593629		 0.00042137		 0.00023147		 0.00018482	
O		1.92516211		1.02767141		0.36880516		 0.00047799		 0.00013632		-0.00008994	
O		4.64578120		13.06932952		8.09926476		-0.00047799		-0.00013632		 0.00008994	
O		6.65430992		8.07617134		3.01819034		-0.00047799		 0.00013632		 0.00008994	
O		-0.08336661		6.02082852		5.44987958		 0.00047799		-0.00013632		-0.00008994	
O		1.09417770		3.37200199		6.63607709		 0.00008524		-0.00067614		 0.00001529	
O		5.47676453		10.72499787		1.83199283		-0.00008524		 0.00067614		-0.00001529	
O		3.46823688		10.42050192		6.91306832		-0.00008524		-0.00067614		-0.00001529	
O		3.10270750		3.67649794		1.55500160		 0.00008524		 0.00067614		 0.00001529	
O		7.52900636		1.20106449		3.82637299		 0.00020336		-0.00049038		-0.00043766	
O		-0.95806306		12.89593644		4.64169693		-0.00020336		 0.00049038		 0.00043766	
O		-2.96659178		8.24956550		9.72277242		-0.00020336		-0.00049038		 0.00043766	
O		9.53753508		5.84743544		-1.25470250		 0.00020336		 0.00049038		-0.00043766	
O		-1.84377383		3.49182676		6.35792353		-0.00028605		 0.00092919		-0.00071092	
O		8.41471713		10.60517418		2.11014747		 0.00028605		-0.00092919		 0.00071092	
O		6.40618841		10.54032669		7.19122188		 0.00028605		 0.00092919		 0.00071092	
O		0.16475490		3.55667317		1.27684804		-0.00028605		-0.00092919		-0.00071092	
O		8.29821210		3.49746581		2.13640407		 0.00019846		-0.00005570		 0.00029472	
O		-1.72726880		10.59953512		6.33166692		-0.00019846		 0.00005570		-0.00029472	
O		0.28125992		10.54596574		1.25059251		-0.00019846		-0.00005570		-0.00029472	
O		6.28968338		3.55103519		7.21747849		 0.00019846		 0.00005570		 0.00029472	
H		-2.14553442		2.72072096		6.05493840		 0.00048261		 0.00014094		-0.00048090	
H		8.71647773		11.37627890		2.41313152		-0.00048261		-0.00014094		 0.00048090	
H		6.70794900		9.76922089		7.49420701		-0.00048261		 0.00014094		 0.00048090	
H		-0.13700570		4.32777897		0.97386291		 0.00048261		-0.00014094		-0.00048090	
H		8.04868807		2.87578792		2.67228880		-0.00003493		-0.00038756		-0.00036277	
H		-1.47774476		11.22121194		5.79578112		 0.00003493		 0.00038756		 0.00036277	
H		0.53078289		9.92428785		0.71470563		 0.00003493		-0.00038756		 0.00036277	
H		6.04016042		4.17271201		7.75336429		-0.00003493		 0.00038756		-0.00036277	
