# total energy = -7715.70108084 eV

CRYSTAL
PRIMVEC
		4.50590220		0.00000000		0.00000000
		0.00000000		4.50590220		0.00000000
		0.00000000		0.00000000		4.50590220
PRIMECORD
   8 1
Ca		0.00000000		0.00000000		0.00000000		 0.00000002		 0.00000004		0.00000000
Mg		0.00000000		2.25295199		2.25295154		 0.00000002		-0.00000005		-0.00000001
Mg		2.25295154		0.00000000		2.25295154		-0.00000004		 0.00000004		-0.00000003
Mg		2.25295154		2.25295199		0.00000000		-0.00000003		-0.00000005		 0.00000001
O		0.00000000		0.00000000		2.25295154		 0.00000001		 0.00000001		 0.00000001
O		2.25295154		0.00000000		0.00000000		 0.00000002		0.00000000		 0.00000001
O		0.00000000		2.25295154		0.00000000		 0.00000004		 0.00000003		 0.00000005
O		2.25295154		2.25295154		2.25295154		-0.00000004		-0.00000002		-0.00000004
