# total energy = -7715.78106973 eV

CRYSTAL
PRIMVEC
		4.47232587		0.00000000		0.00000000
		0.00000000		4.47232587		0.00000000
		0.00000000		0.00000000		4.47232587
PRIMECORD
   8 1
Ca		0.00000000		0.00000000		0.00000000		 0.00000002		 0.00000003		0.00000000
Mg		0.00000000		2.23616382		2.23616338		 0.00000002		-0.00000005		-0.00000002
Mg		2.23616338		0.00000000		2.23616338		-0.00000004		 0.00000004		-0.00000003
Mg		2.23616338		2.23616382		0.00000000		-0.00000004		-0.00000005		 0.00000001
O		0.00000000		0.00000000		2.23616293		 0.00000001		 0.00000002		 0.00000001
O		2.23616293		0.00000000		0.00000000		 0.00000002		 0.00000001		 0.00000002
O		0.00000000		2.23616338		0.00000000		 0.00000004		 0.00000003		 0.00000005
O		2.23616338		2.23616338		2.23616338		-0.00000004		-0.00000002		-0.00000004
