# total energy = -20638.464723 eV

CRYSTAL
PRIMVEC
		4.74599980		0.00000000		0.00000000
		0.00000000		10.17999872		0.40720204
		0.00000000		0.23904177		5.97600159
PRIMECORD
   28 1
Si		2.02227004		1.01566199		1.53223607		-0.00018950		 0.00021137		 0.00015319
Si		2.72372881		9.40337755		4.85096376		 0.00018950		-0.00021137		-0.00015319
Si		4.39527089		4.31337772		4.64736369		-0.00018950		-0.00021137		-0.00015319
Si		0.35072891		6.10566183		1.73583614		 0.00018950		 0.00021137		 0.00015319
Mg		0.00000000		0.00000000		0.00000000		0.00000000		0.00000000		0.00000000
Mg		2.37299990		5.08999984		0.20360007		0.00000000		0.00000000		-0.00000000
Mg		0.00000000		0.11951994		2.98799984		0.00000000		0.00000000		0.00000000
Mg		2.37299990		5.20951977		3.19159991		0.00000000		0.00000000		0.00000000
Mg		4.70518373		2.88165575		1.60687593		-0.00003281		-0.00018885		 0.00074100
Mg		0.04081607		7.53738379		4.77632389		 0.00003281		 0.00018885		-0.00074100
Mg		2.33218383		2.44738396		4.57272382		-0.00003281		 0.00018885		-0.00074100
Mg		2.41381503		7.97165559		1.81047600		 0.00003281		-0.00018885		 0.00074100
O		3.63590997		0.99530213		1.53142213		 0.00009383		 0.00037651		-0.00024999
O		1.11008888		9.42373742		4.85177770		-0.00009383		-0.00037651		 0.00024999
O		1.26291102		4.33373806		4.64817763		 0.00009383		-0.00037651		 0.00024999
O		3.48308878		6.08530196		1.73502173		-0.00009383		 0.00037651		-0.00024999
O		1.04506916		4.60920158		1.67597817		-0.00010806		-0.00023762		-0.00014991
O		3.70093065		5.80983797		4.70722166		 0.00010806		 0.00023762		 0.00014991
O		3.41806906		0.71983813		4.50362159		-0.00010806		 0.00023762		 0.00014991
O		1.32793074		9.69920141		1.87957776		 0.00010806		-0.00023762		-0.00014991
O		1.31796415		1.66526407		0.26529285		 0.00030597		-0.00037176		 0.00014486
O		3.42803566		8.75377547		6.11790698		-0.00030597		 0.00037176		-0.00014486
O		3.69096405		3.66377564		5.91430691		 0.00030597		 0.00037176		-0.00014486
O		1.05503576		6.75526391		0.46889292		-0.00030597		-0.00037176		 0.00014486
O		3.42803566		8.65017552		3.52790763		 0.00042935		-0.00027078		-0.00074981
O		1.31796415		1.76886403		2.85529077		-0.00042935		 0.00027078		 0.00074981
O		1.05503576		6.85886386		3.05889084		 0.00042935		 0.00027078		 0.00074981
O		3.69096405		3.56017568		3.32430804		-0.00042935		-0.00027078		-0.00074981
