# total energy = -41266.7558023 eV

CRYSTAL
PRIMVEC
		5.69830055		0.68379469		0.00000000
		1.37255951		11.43799782		0.00000000
		0.00000000		0.00000000		8.25659776
PRIMECORD
   56 1
Mg		0.00000000		0.00000000		0.00000000		0.00000000		0.00000000		0.00000000
Mg		0.68627975		5.71899948		0.00000000		0.00000000		0.00000000		0.00000000
Mg		3.53543003		6.06089740		4.12829945		0.00000000		0.00000000		0.00000000
Mg		2.84914970		0.34189792		4.12829945		0.00000000		0.00000000		0.00000000
Mg		0.34313988		2.85949974		8.00972748		0.00000000		-0.00000000		-0.00016838
Mg		1.02942021		8.57849923		0.24687201		-0.00000000		0.00000000		 0.00016838
Mg		3.87856991		8.92039714		3.88142802		-0.00000000		0.00000000		-0.00016816
Mg		3.19228958		3.20139766		4.37517261		0.00000000		-0.00000000		 0.00016816
Mg		1.59971399		1.63043812		2.06414973		-0.00019828		 0.00028269		 0.00065890
Mg		5.47114550		10.49135726		6.19244976		 0.00019828		-0.00028269		-0.00065890
Mg		4.78486575		4.77235778		2.06414973		 0.00019828		-0.00028269		 0.00065890
Mg		2.28599374		7.34943760		6.19244976		-0.00019828		 0.00028269		-0.00065890
Mg		5.13514344		7.69133552		6.19244976		-0.00019845		 0.00028259		 0.00065811
Mg		1.93571604		4.43045986		2.06414973		 0.00019845		-0.00028259		-0.00065811
Mg		2.62199580		10.14945934		6.19244976		 0.00019846		-0.00028258		 0.00065811
Mg		4.44886369		1.97233604		2.06414973		-0.00019846		 0.00028258		-0.00065811
Si		0.16443327		1.37027187		5.09267064		 0.00015618		 0.00004218		-0.00006863
Si		1.20812682		10.06772710		3.16392885		-0.00015618		-0.00004218		 0.00006863
Si		0.52184706		4.34872646		5.09267064		-0.00015619		-0.00004219		-0.00006866
Si		0.85071302		7.08927136		3.16392885		 0.00015619		 0.00004219		 0.00006866
Si		3.69986273		7.43116927		0.96437118		 0.00015468		 0.00003917		-0.00006314
Si		3.37099676		4.69062496		7.29222830		-0.00015468		-0.00003917		 0.00006314
Si		4.05727652		10.40962559		0.96437118		-0.00015468		-0.00003917		-0.00006315
Si		3.01358297		1.71216979		7.29222830		 0.00015468		 0.00003917		 0.00006315
O		0.34313988		2.85949974		1.78837980		-0.00000000		 0.00000001		 0.00092399
O		1.02942021		8.57849923		6.46822083		0.00000000		-0.00000001		-0.00092399
O		3.87856991		8.92039714		5.91667983		-0.00000000		0.00000000		 0.00092477
O		3.19228958		3.20139766		2.33992081		0.00000000		-0.00000000		-0.00092477
O		0.34313988		2.85949974		5.91502866		-0.00000000		 0.00000001		 0.00033428
O		1.02942021		8.57849923		2.34157197		0.00000000		-0.00000001		-0.00033428
O		3.87856991		8.92039714		1.78672863		-0.00000000		-0.00000001		 0.00033322
O		3.19228958		3.20139766		6.46987142		0.00000000		 0.00000001		-0.00033322
O		1.35883368		11.32361939		2.11203803		-0.00029278		 0.00001879		 0.00014801
O		0.01372582		0.11438015		6.14456146		 0.00029278		-0.00001879		-0.00014801
O		0.70000615		5.83337963		2.11203803		 0.00029278		-0.00001880		 0.00014799
O		0.67255393		5.60461991		6.14456146		-0.00029278		 0.00001880		-0.00014799
O		3.52170363		5.94651783		6.24033863		-0.00029291		 0.00001602		 0.00015153
O		3.54915586		6.17527755		2.01626200		 0.00029291		-0.00001602		-0.00015153
O		2.86287553		0.45627807		6.24033863		 0.00029291		-0.00001602		 0.00015153
O		4.20798396		11.66551731		2.01626200		-0.00029291		 0.00001602		-0.00015153
O		1.65824387		1.57996776		8.19467544		-0.00010613		-0.00018973		-0.00009025
O		5.41261562		10.54182704		0.06192404		 0.00010613		 0.00018973		 0.00009025
O		4.72633586		4.82282756		8.19467544		 0.00010613		 0.00018973		-0.00009024
O		2.34452363		7.29896725		0.06192404		-0.00010613		-0.00018973		 0.00009024
O		5.06261283		7.62513751		0.06192404		 0.00018507		 0.00054625		-0.00024435
O		2.00824666		4.49665787		8.19467544		-0.00018507		-0.00054625		 0.00024435
O		2.69452699		10.21565620		0.06192404		-0.00018508		-0.00054625		-0.00024435
O		4.37633250		1.90613803		8.19467544		 0.00018508		 0.00054625		 0.00024435
O		5.19367391		7.64086574		4.06637599		-0.00010539		-0.00018972		-0.00009067
O		1.87718616		4.48092964		4.19022464		 0.00010539		 0.00018972		 0.00009067
O		2.56346591		10.19992912		4.06637599		 0.00010538		 0.00018972		-0.00009068
O		4.50739358		1.92186568		4.19022464		-0.00010538		-0.00018972		 0.00009068
O		1.52718279		1.56424011		4.19022464		 0.00018317		 0.00054611		-0.00024286
O		5.54367670		10.55755412		4.06637599		-0.00018317		-0.00054611		 0.00024286
O		4.85739694		4.83855578		4.19022464		-0.00018316		-0.00054611		-0.00024285
O		2.21346312		7.28323959		4.06637599		 0.00018316		 0.00054611		 0.00024285
