# total energy = -41266.7558023 eV

CRYSTAL
PRIMVEC
		5.69830055		-0.68379469		0.00000000
		-1.37255951		11.43799782		0.00000000
		0.00000000		0.00000000		8.25659776
PRIMECORD
   56 1
Mg		0.00000000		0.00000000		0.00000000		0.00000000		0.00000000		0.00000000
Mg		-0.68627975		5.71899948		0.00000000		0.00000000		0.00000000		0.00000000
Mg		2.16286995		5.37710157		4.12829945		0.00000000		0.00000000		0.00000000
Mg		2.84914970		-0.34189792		4.12829945		0.00000000		0.00000000		0.00000000
Mg		-0.34313988		2.85949974		8.00972748		-0.00000000		-0.00000002		-0.00016833
Mg		-1.02942021		8.57849923		0.24687201		0.00000000		 0.00000002		 0.00016833
Mg		1.81973007		8.23660131		3.88142802		 0.00000001		-0.00000001		-0.00016824
Mg		2.50600983		2.51760182		4.37517261		-0.00000001		 0.00000001		 0.00016824
Mg		1.24943572		1.28854020		2.06414973		 0.00019840		 0.00028263		-0.00065837
Mg		3.07630361		9.46566351		6.19244976		-0.00019840		-0.00028263		 0.00065837
Mg		3.76258394		3.74666402		2.06414973		-0.00019840		-0.00028262		-0.00065835
Mg		0.56315596		7.00753968		6.19244976		 0.00019840		 0.00028262		 0.00065835
Mg		3.41230567		6.66564176		6.19244976		 0.00019835		 0.00028267		-0.00065865
Mg		0.91343366		4.08856194		2.06414973		-0.00019835		-0.00028267		 0.00065865
Mg		0.22715390		9.80756142		6.19244976		-0.00019835		-0.00028266		-0.00065863
Mg		4.09858599		0.94664171		2.06414973		 0.00019835		 0.00028266		 0.00065863
Si		-0.16443327		1.37027187		5.09267064		-0.00015564		 0.00004114		-0.00006676
Si		-1.20812682		10.06772710		3.16392885		 0.00015564		-0.00004114		 0.00006676
Si		-0.52184706		4.34872646		5.09267064		 0.00015572		-0.00004124		-0.00006693
Si		-0.85071302		7.08927136		3.16392885		-0.00015572		 0.00004124		 0.00006693
Si		1.99843668		6.74737344		0.96437118		-0.00015512		 0.00004008		-0.00006483
Si		2.32730264		4.00682855		7.29222830		 0.00015512		-0.00004008		 0.00006483
Si		1.64102289		9.72582918		0.96437118		 0.00015517		-0.00004015		-0.00006496
Si		2.68471701		1.02837395		7.29222830		-0.00015517		 0.00004015		 0.00006496
O		-0.34313988		2.85949974		1.78837980		-0.00000001		 0.00000001		 0.00092425
O		-1.02942021		8.57849923		6.46822083		 0.00000001		-0.00000001		-0.00092425
O		1.81973007		8.23660131		5.91667983		-0.00000001		-0.00000000		 0.00092452
O		2.50600983		2.51760182		2.33992081		 0.00000001		0.00000000		-0.00092452
O		-0.34313988		2.85949974		5.91502866		-0.00000000		 0.00000001		 0.00033394
O		-1.02942021		8.57849923		2.34157197		0.00000000		-0.00000001		-0.00033394
O		1.81973007		8.23660131		1.78672863		-0.00000001		-0.00000001		 0.00033357
O		2.50600983		2.51760182		6.46987142		 0.00000001		 0.00000001		-0.00033357
O		-1.35883368		11.32361939		2.11203803		 0.00029282		 0.00001784		 0.00014922
O		-0.01372582		0.11438015		6.14456146		-0.00029282		-0.00001784		-0.00014922
O		-0.70000615		5.83337963		2.11203803		-0.00029281		-0.00001793		 0.00014910
O		-0.67255393		5.60461991		6.14456146		 0.00029281		 0.00001793		-0.00014910
O		2.17659577		5.26272142		6.24033863		 0.00029287		 0.00001686		 0.00015045
O		2.14914412		5.49148172		2.01626200		-0.00029287		-0.00001686		-0.00015045
O		2.83542388		-0.22751777		6.24033863		-0.00029286		-0.00001693		 0.00015037
O		1.49031602		10.98172147		2.01626200		 0.00029286		 0.00001693		-0.00015037
O		1.32196691		1.22234219		8.19467544		-0.00018444		 0.00054621		 0.00024385
O		3.00377299		9.53186036		0.06192404		 0.00018444		-0.00054621		-0.00024385
O		3.69005274		3.81286203		8.19467544		 0.00018449		-0.00054622		 0.00024390
O		0.63568715		6.94134168		0.06192404		-0.00018449		 0.00054622		-0.00024390
O		3.35377578		6.61517141		0.06192404		 0.00010589		-0.00018973		 0.00009040
O		0.97196412		4.13903172		8.19467544		-0.00010589		 0.00018973		-0.00009040
O		0.28568379		9.85803121		0.06192404		-0.00010587		 0.00018972		 0.00009040
O		4.04005553		0.89617192		8.19467544		 0.00010587		-0.00018972		-0.00009040
O		3.48483686		6.59944376		4.06637599		-0.00018375		 0.00054617		 0.00024331
O		0.84090304		4.15475995		4.19022464		 0.00018375		-0.00054617		-0.00024331
O		0.15462271		9.87375828		4.06637599		 0.00018383		-0.00054616		 0.00024337
O		4.17111661		0.88044370		4.19022464		-0.00018383		 0.00054616		-0.00024337
O		1.19090583		1.23806984		4.19022464		 0.00010562		-0.00018973		 0.00009055
O		3.13483407		9.51613329		4.06637599		-0.00010562		 0.00018973		-0.00009055
O		3.82111382		3.79713380		4.19022464		-0.00010561		 0.00018972		 0.00009055
O		0.50462608		6.95706933		4.06637599		 0.00010561		-0.00018972		-0.00009055
