# total energy = -41261.540486 eV

CRYSTAL
PRIMVEC
		5.69830219		0.91173089		0.00000000
		1.83008086		11.43799816		0.00000000
		0.00000000		0.00000000		8.25659744
PRIMECORD
   56 1
Mg		0.00000000		0.00000000		0.00000000		0.00000000		0.00000000		0.00000000
Mg		0.91503985		5.71900023		0.00000000		0.00000000		0.00000000		0.00000000
Mg		3.76418979		6.17486395		4.12829988		0.00000000		0.00000000		0.00000000
Mg		2.84914994		0.45586429		4.12829988		0.00000000		0.00000000		0.00000000
Mg		0.45751993		2.85949983		8.00972821		0.00000000		0.00000000		 0.00064674
Mg		1.37255978		8.57850006		0.24687213		-0.00000000		-0.00000000		-0.00064674
Mg		4.22171030		9.03436435		3.88142833		0.00000000		0.00000000		 0.00064680
Mg		3.30666987		3.31536412		4.37517316		-0.00000000		-0.00000000		-0.00064680
Mg		1.65809323		1.68742090		2.06414994		 0.00022357		-0.00018353		-0.00018722
Mg		5.87028693		10.66230700		6.19244981		-0.00022357		 0.00018353		 0.00018722
Mg		4.95524708		4.94330734		2.06414994		-0.00022356		 0.00018354		-0.00018722
Mg		2.57313308		7.40642113		6.19244981		 0.00022356		-0.00018354		 0.00018722
Mg		5.42228302		7.86228484		6.19244981		 0.00022359		-0.00018358		-0.00018749
Mg		2.10609714		4.48744305		2.06414994		-0.00022359		 0.00018358		 0.00018749
Mg		3.02113699		10.20644329		6.19244981		-0.00022358		 0.00018360		-0.00018750
Mg		4.50724317		2.14328519		2.06414994		 0.00022358		-0.00018360		 0.00018750
Si		0.21924395		1.37027224		5.09267122		 0.00017602		 0.00003893		 0.00009794
Si		1.61083575		10.06772823		3.16392911		-0.00017602		-0.00003893		-0.00009794
Si		0.69579590		4.34872684		5.09267122		-0.00017600		-0.00003889		 0.00009803
Si		1.13428380		7.08927190		3.16392911		 0.00017600		 0.00003889		-0.00009803
Si		3.98343317		7.54513619		0.96437077		 0.00017564		 0.00003788		 0.00009993
Si		3.54494584		4.80459113		7.29222899		-0.00017564		-0.00003788		-0.00009993
Si		4.45998627		10.52359194		0.96437077		-0.00017563		-0.00003785		 0.00010001
Si		3.06839389		1.82613596		7.29222899		 0.00017563		 0.00003785		-0.00010001
O		0.45751993		2.85949983		1.78838007		0.00000000		 0.00000001		-0.00012746
O		1.37255978		8.57850006		6.46822084		-0.00000000		-0.00000001		 0.00012746
O		4.22171030		9.03436435		5.91667995		 0.00000001		 0.00000001		-0.00012716
O		3.30666987		3.31536412		2.33992096		-0.00000001		-0.00000001		 0.00012716
O		0.45751993		2.85949983		5.91502893		-0.00000000		 0.00000001		-0.00017649
O		1.37255978		8.57850006		2.34157198		0.00000000		-0.00000001		 0.00017649
O		4.22171030		9.03436435		1.78672905		0.00000000		 0.00000001		-0.00017688
O		3.30666987		3.31536412		6.46987186		-0.00000000		-0.00000001		 0.00017688
O		1.81177884		11.32362020		2.11203816		 0.00041841		-0.00047782		-0.00017916
O		0.01830087		0.11438027		6.14456217		-0.00041841		 0.00047782		 0.00017916
O		0.93334130		5.83337993		2.11203816		-0.00041841		 0.00047786		-0.00017911
O		0.89673899		5.60461996		6.14456217		 0.00041841		-0.00047786		 0.00017911
O		3.74588893		6.06048425		6.24033919		 0.00041840		-0.00047884		-0.00017783
O		3.78249124		6.28924422		2.01626230		-0.00041840		 0.00047884		 0.00017783
O		2.86745081		0.57024398		6.24033919		-0.00041841		 0.00047888		-0.00017779
O		4.66092878		11.77948391		2.01626230		 0.00041841		-0.00047888		 0.00017779
O		1.71429021		1.63957192		8.19467585		 0.00037554		 0.00051819		 0.00029423
O		5.81408995		10.71015598		0.06192390		-0.00037554		-0.00051819		-0.00029423
O		4.89905010		4.99115632		8.19467585		-0.00037555		-0.00051819		 0.00029422
O		2.62933006		7.35857215		0.06192390		 0.00037555		 0.00051819		-0.00029422
O		5.34741930		7.79346601		0.06192390		 0.00075536		-0.00021863		 0.00045095
O		2.18096086		4.55626188		8.19467585		-0.00075536		 0.00021863		-0.00045095
O		3.09600129		10.27526212		0.06192390		-0.00075539		 0.00021862		 0.00045093
O		4.43237887		2.07446578		8.19467585		 0.00075539		-0.00021862		-0.00045093
O		5.47848000		7.81443587		4.06637597		 0.00037575		 0.00051823		 0.00029412
O		2.04990016		4.53529203		4.19022493		-0.00037575		-0.00051823		-0.00029412
O		2.96494001		10.25429227		4.06637597		-0.00037576		-0.00051823		 0.00029412
O		4.56344015		2.09543621		4.19022493		 0.00037576		 0.00051823		-0.00029412
O		1.58322893		1.61860207		4.19022493		 0.00075481		-0.00021873		 0.00045144
O		5.94515123		10.73112641		4.06637597		-0.00075481		 0.00021873		-0.00045144
O		5.03011080		5.01212617		4.19022493		-0.00075485		 0.00021873		 0.00045142
O		2.49826879		7.33760230		4.06637597		 0.00075485		-0.00021873		-0.00045142
