# total energy = -18518.5599435 eV	

CRYSTAL	
PRIMVEC	
		7.02599999		0.00000000		0.00000000	
		0.00000000		6.22800096		0.00000000	
		-0.43440353		0.00000000		4.45179303	
PRIMCOORD
   30 1	
Mg		0.16677405		1.55700024		2.39506503		 0.00055478		0.00000000		 0.00031840	
Mg		6.42482381		4.67100002		2.05672870		-0.00055478		0.00000000		-0.00031840	
Mg		4.73063390		1.55700024		4.08229499		-0.00013950		-0.00000000		 0.00074268	
Mg		1.86096467		4.67100002		0.36949874		 0.00013950		-0.00000000		-0.00074268	
Mg		2.80620688		1.55700024		0.18697521		 0.00014251		0.00000000		-0.00025337	
Mg		3.78539099		4.67100002		4.26481923		-0.00014251		0.00000000		 0.00025337	
Si		0.00000000		0.00000000		0.00000000		0.00000000		0.00000000		0.00000000	
Si		0.00000000		3.11399978		0.00000000		0.00000000		0.00000000		0.00000000	
Si		2.07748702		3.12645617		2.47074629		-0.00016925		 0.00042314		-0.00071289	
Si		4.51411084		3.10154408		1.98104815		 0.00016925		-0.00042314		 0.00071289	
Si		4.51411084		0.01245569		1.98104815		 0.00016925		 0.00042314		 0.00071289	
Si		2.07748702		6.21554386		2.47074629		-0.00016925		-0.00042314		-0.00071289	
O		5.50377634		3.48767969		0.62325117		-0.00063526		-0.00021669		 0.00031642	
O		1.08782223		2.74031986		3.82854327		 0.00063526		 0.00021669		-0.00031642	
O		1.08782223		0.37367992		3.82854327		 0.00063526		-0.00021669		-0.00031642	
O		5.50377634		5.85431964		0.62325117		-0.00063526		 0.00021669		 0.00031642	
O		5.86321666		2.74654771		2.91592489		 0.00003704		-0.00024325		 0.00041748	
O		0.72838120		3.48145185		1.53586884		-0.00003704		 0.00024325		-0.00041748	
O		0.72838120		5.86054819		1.53586884		-0.00003704		-0.00024325		-0.00041748	
O		5.86321666		0.36745207		2.91592489		 0.00003704		 0.00024325		 0.00041748	
O		1.96359767		1.55700024		1.90981996		 0.00030360		0.00000000		-0.00014327	
O		4.62800090		4.67100002		2.54197518		-0.00030360		0.00000000		 0.00014327	
O		3.11234796		3.45653976		1.08178619		-0.00033348		 0.00048302		 0.00027078	
O		3.47924990		2.77145979		3.37000825		 0.00033348		-0.00048302		-0.00027078	
O		3.47924990		0.34253998		3.37000825		 0.00033348		 0.00048302		-0.00027078	
O		3.11234796		5.88546028		1.08178619		-0.00033348		-0.00048302		 0.00027078	
O		4.38877614		1.55700024		1.39341177		-0.00035037		0.00000000		 0.00014316	
O		2.20282173		4.67100002		3.05838266		 0.00035037		0.00000000		-0.00014316	
O		6.82103681		1.55700024		0.51640819		-0.00014995		0.00000000		 0.00032245	
O		-0.22943895		4.67100002		3.93538625		 0.00014995		-0.00000000		-0.00032245	
