# total energy = -18504.8118564 eV	

CRYSTAL	
PRIMVEC	
		7.02599999		0.00000000		0.00000000	
		0.00000000		6.22800096		0.00000000	
		-0.43440353		0.00000000		4.02781609	
PRIMCOORD
   30 1	
Mg		0.16677405		1.55700024		2.16696383		-0.00024823		-0.00000000		-0.00025508	
Mg		6.42482381		4.67100002		1.86085015		 0.00024823		-0.00000000		 0.00025508	
Mg		4.73063390		1.55700024		3.69350496		 0.00027188		0.00000000		-0.00059383	
Mg		1.86096467		4.67100002		0.33430902		-0.00027188		0.00000000		 0.00059383	
Mg		2.80620688		1.55700024		0.16916781		 0.00009152		0.00000000		 0.00005835	
Mg		3.78539099		4.67100002		3.85864617		-0.00009152		0.00000000		-0.00005835	
Si		0.00000000		0.00000000		0.00000000		0.00000000		0.00000000		0.00000000	
Si		0.00000000		3.11399978		0.00000000		0.00000000		0.00000000		0.00000000	
Si		2.07748702		3.12645617		2.23543712		-0.00043727		-0.00035436		 0.00032495	
Si		4.51411084		3.10154408		1.79237686		 0.00043727		 0.00035436		-0.00032495	
Si		4.51411084		0.01245569		1.79237686		 0.00043727		-0.00035436		-0.00032495	
Si		2.07748702		6.21554386		2.23543712		-0.00043727		 0.00035436		 0.00032495	
O		5.50377634		3.48767969		0.56389411		-0.00011581		 0.00031899		-0.00010566	
O		1.08782223		2.74031986		3.46391987		 0.00011581		-0.00031899		 0.00010566	
O		1.08782223		0.37367992		3.46391987		 0.00011581		 0.00031899		 0.00010566	
O		5.50377634		5.85431964		0.56389411		-0.00011581		-0.00031899		-0.00010566	
O		5.86321666		2.74654771		2.63821803		-0.00026673		 0.00051831		-0.00051702	
O		0.72838120		3.48145185		1.38959595		 0.00026673		-0.00051831		 0.00051702	
O		0.72838120		5.86054819		1.38959595		 0.00026673		 0.00051831		 0.00051702	
O		5.86321666		0.36745207		2.63821803		-0.00026673		-0.00051831		-0.00051702	
O		1.96359767		1.55700024		1.72793228		 0.00012535		0.00000000		 0.00007438	
O		4.62800090		4.67100002		2.29988170		-0.00012535		0.00000000		-0.00007438	
O		3.11234796		3.45653976		0.97875904		-0.00028293		-0.00025520		-0.00027166	
O		3.47924990		2.77145979		3.04905495		 0.00028293		 0.00025520		 0.00027166	
O		3.47924990		0.34253998		3.04905495		 0.00028293		-0.00025520		 0.00027166	
O		3.11234796		5.88546028		0.97875904		-0.00028293		 0.00025520		-0.00027166	
O		4.38877614		1.55700024		1.26070609		-0.00002177		0.00000000		 0.00005313	
O		2.20282173		4.67100002		2.76710789		 0.00002177		0.00000000		-0.00005313	
O		6.82103681		1.55700024		0.46722619		-0.00008988		0.00000000		-0.00030098	
O		-0.22943895		4.67100002		3.56058779		 0.00008988		0.00000000		 0.00030098	
