# total energy = -24713.8173912 eV

CRYSTAL
PRIMVEC
		11.22021124		-0.00000968		0.82112306
		-0.00000968		10.81769462		0.00000000
		2.29807578		0.00000000		5.08615538
PRIMECORD
   40 1
Si		3.38203605		4.50340855		1.47617050		-0.00027793		-0.00031954		 0.00039477
Si		10.13624419		6.31422218		4.43110891		 0.00027797		 0.00047607		-0.00038981
Si		3.37699225		9.91231879		1.47741257		 0.00048436		-0.00049233		-0.00037856
Si		10.14128799		0.90542811		4.42986683		-0.00048426		 0.00034324		 0.00038374
Si		8.99342828		4.50138909		1.88443666		-0.00040812		 0.00005738		-0.00003722
Si		4.52486165		6.31626003		4.02284952		 0.00039036		 0.00005829		 0.00002944
Si		8.98591292		9.91016961		1.89037983		 0.00042545		 0.00017091		 0.00001654
Si		4.53237798		0.90756084		4.01690635		-0.00044362		-0.00028397		-0.00002379
O		4.62072581		3.59724662		0.88552882		 0.00000089		 0.00018014		 0.00085289
O		8.89754378		7.22045768		5.02176027		 0.00003318		-0.00021812		-0.00087243
O		2.13844384		9.00614330		2.06818591		-0.00009412		 0.00009823		-0.00086583
O		11.37982770		1.81153292		3.83910317		 0.00012649		-0.00006079		 0.00084715
O		10.23478225		3.59423583		1.30177793		-0.00060049		-0.00002300		-0.00010561
O		3.28348928		7.22345976		4.60550438		 0.00062249		 0.00000011		 0.00009745
O		7.74450957		9.00312477		2.47298338		 0.00059598		-0.00006986		 0.00011679
O		5.77376292		1.81455824		3.43429796		-0.00057331		 0.00009391		-0.00012470
O		5.09782970		5.41340997		5.29739770		 0.00054460		-0.00032563		 0.00009999
O		8.42043022		5.40431563		0.60985653		-0.00049624		 0.00023151		 0.00000115
O		3.95931699		10.82214207		2.74233590		-0.00043739		-0.00012399		 0.00011814
O		9.55894389		-0.00448424		3.16491930		 0.00048328		 0.00021364		-0.00002151
O		9.56092656		5.41222985		3.15622092		 0.00015006		-0.00030987		 0.00018439
O		3.95737208		5.40549188		2.75108462		-0.00019164		 0.00022455		-0.00027549
O		10.71651365		10.82105296		5.70467156		-0.00012994		-0.00032671		-0.00013916
O		2.80178402		-0.00339125		0.20263495		 0.00009024		 0.00040821		 0.00005192
O		2.14587497		3.59054543		2.06085643		-0.00022666		-0.00004171		-0.00032635
O		11.37242076		7.22715693		3.84642491		 0.00019071		 0.00000471		 0.00033995
O		4.61334211		8.99939952		0.89276633		 0.00011451		-0.00000220		 0.00035239
O		8.90495168		1.81827768		5.01451598		-0.00014800		 0.00003781		-0.00034014
O		7.75372976		3.59179622		2.46661037		 0.00048809		 0.00009111		 0.00059035
O		5.76455242		7.22589937		3.44067000		-0.00049825		-0.00010806		-0.00058345
O		10.22562983		9.00068032		1.30810931		-0.00048224		 0.00003964		-0.00056854
O		3.29265332		1.81700269		4.59917203		 0.00047084		-0.00002129		 0.00057585
Mg		0.57973410		2.66119170		1.26824004		 0.00002993		-0.00049232		-0.00038652
Mg		1.71833297		8.15650486		3.81791437		-0.00002892		 0.00049096		 0.00038785
Mg		6.17940360		8.06994413		1.68539433		-0.00020404		-0.00008837		 0.00042697
Mg		7.33887664		2.74774565		4.22188797		 0.00020493		 0.00008853		-0.00042583
Mg		0.57304259		8.07187743		1.27452495		 0.00012436		 0.00008868		-0.00053535
Mg		1.72502351		2.74582010		3.81163043		-0.00012391		-0.00008978		 0.00053394
Mg		6.18609801		2.66313564		1.67911427		-0.00006635		-0.00033675		 0.00049157
Mg		7.33218126		8.15455414		4.22816804		 0.00006670		 0.00033665		-0.00049294
