# total energy = -24713.2048815 eV

CRYSTAL
PRIMVEC
		11.31637261		-0.00000968		0.76974599
		-0.00000968		10.90400074		0.00000968
		2.31542413		0.00000000		5.10625313
PRIMECORD
   40 1
Si		3.41030941		4.53800360		1.46781967		-0.00013491		-0.00038717		 0.00021243
Si		10.22147765		6.36617623		4.40817849		 0.00013481		-0.00008637		-0.00021355
Si		3.40558509		9.98963706		1.47017893		 0.00011956		 0.00047142		-0.00021121
Si		10.22620198		0.91416618		4.40581826		-0.00012101		 0.00000132		 0.00021163
Si		9.06368233		4.53755731		1.85387568		 0.00000891		-0.00039425		 0.00002788
Si		4.56810571		6.36659348		4.02212538		-0.00000960		-0.00001866		-0.00003548
Si		9.06855381		9.98931759		1.85387568		 0.00005064		 0.00019140		-0.00003841
Si		4.56323423		0.91451567		4.02212635		-0.00004978		 0.00022216		 0.00002924
O		4.64933801		3.62003666		0.87470836		 0.00026896		 0.00011314		 0.00009637
O		8.98248294		7.28390986		5.00128399		-0.00036877		 0.00000051		-0.00005244
O		2.16663007		9.07215514		2.06328442		-0.00047472		-0.00013776		-0.00001002
O		11.46519088		1.83188045		3.81270792		 0.00037659		 0.00002574		 0.00005289
O		10.30624158		3.62341146		1.26153498		 0.00019654		 0.00040628		-0.00000838
O		3.32556872		7.28054474		4.61445640		-0.00027044		-0.00031772		 0.00004373
O		7.82609814		9.07549992		2.44618540		-0.00040641		 0.00017864		 0.00009891
O		5.80571313		1.82852889		3.42980598		 0.00033039		-0.00026957		-0.00006237
O		5.14965306		5.45369164		5.29792338		-0.00029490		-0.00001889		 0.00020181
O		8.48219209		5.45019486		0.57814932		 0.00016126		 0.00029643		-0.00048770
O		3.98175174		10.90582754		2.74642129		 0.00012398		-0.00037161		-0.00057416
O		9.65009244		-0.00173096		3.12965238		-0.00025732		 0.00009449		 0.00028888
O		9.64116172		5.45392786		3.12995443		-0.00000865		-0.00008561		 0.00030943
O		3.99056338		5.44995380		2.74596144		 0.00014655		 0.00037044		-0.00001492
O		10.80648693		10.90599212		5.68400553		 0.00008854		-0.00027672		-0.00012719
O		2.82523818		-0.00189070		0.19191227		 0.00004918		-0.00000753		 0.00042102
O		2.16614505		3.62515210		2.05880890		-0.00007788		 0.00008849		 0.00017536
O		11.46561007		7.27879442		3.81719700		 0.00017481		 0.00002339		-0.00022127
O		4.64965651		9.07725219		0.87920906		 0.00029328		-0.00016275		-0.00027645
O		8.98209860		1.82678631		4.99679684		-0.00019512		 0.00005004		 0.00022972
O		7.82250358		3.62031741		2.44349311		-0.00001496		-0.00002230		 0.00045017
O		5.80926025		7.28364073		3.43250892		 0.00008742		 0.00010983		-0.00048360
O		10.30970738		9.07240394		1.26427180		 0.00017110		-0.00021947		-0.00051768
O		3.32205742		1.83162100		4.61172926		-0.00009921		 0.00013219		 0.00048475
Mg		0.57966149		2.68804970		1.27363817		-0.00031107		-0.00082076		 0.00022183
Mg		1.73575683		8.21595104		3.83261787		 0.00031062		 0.00082120		-0.00022354
Mg		6.23621752		8.14003554		1.66436236		 0.00033125		-0.00030342		-0.00024086
Mg		7.39557051		2.76395745		4.21163676		-0.00033263		 0.00030316		 0.00023960
Mg		0.58117463		8.13404784		1.27850481		-0.00040522		-0.00001225		-0.00024154
Mg		1.73424176		2.76994999		3.82775026		 0.00040717		 0.00001227		 0.00024315
Mg		6.23472471		2.68206877		1.65950637		 0.00039136		-0.00051910		 0.00025193
Mg		7.39706139		8.22192519		4.21649082		-0.00039033		 0.00051938		-0.00024998
