# total energy = -10317.2375143 eV	

CRYSTAL	
PRIMVEC	
		4.97999984		0.00000000		0.00000000	
		0.00000000		9.07124900		0.00000000	
		0.00000000		0.00000000		2.75000073	
PRIMCOORD
   14 1	
Si		0.00000000		0.00000000		0.00000000		0.00000000		0.00000000		0.00000000	
Si		2.48999992		4.53562500		0.00000000		0.00000000		0.00000000		0.00000000	
Mg		0.40786199		3.01981912		1.37499987		 0.00016938		-0.00084058		0.00000000	
Mg		4.57213786		6.05143087		1.37499987		-0.00016938		 0.00084058		0.00000000	
Mg		2.08213793		7.55544362		1.37499987		-0.00016938		-0.00084058		0.00000000	
Mg		2.89786191		1.51580588		1.37499987		 0.00016938		 0.00084058		0.00000000	
O		1.07767197		0.40639189		1.37499987		-0.00011043		 0.00091476		-0.00000000	
O		3.90232788		8.66485860		1.37499987		 0.00011043		-0.00091476		0.00000000	
O		1.41232796		4.94201689		1.37499987		 0.00011043		 0.00091476		0.00000000	
O		3.56767189		4.12923310		1.37499987		-0.00011043		-0.00091476		0.00000000	
O		1.95464994		2.80029475		0.00000000		 0.00089080		 0.00022036		0.00000000	
O		3.02534991		6.27095574		0.00000000		-0.00089080		-0.00022036		0.00000000	
O		0.53534998		7.33591974		0.00000000		-0.00089080		 0.00022036		0.00000000	
O		4.44464986		1.73532975		0.00000000		 0.00089080		-0.00022036		0.00000000	
