# total energy = -10316.2880921 eV	

CRYSTAL	
PRIMVEC	
		4.97999984		0.00000000		0.00000000	
		0.00000000		8.18624824		0.00000000	
		0.00000000		0.00000000		2.75000073	
PRIMCOORD
   14 1	
Si		0.00000000		0.00000000		0.00000000		0.00000000		0.00000000		0.00000000	
Si		2.48999992		4.09312512		0.00000000		0.00000000		0.00000000		0.00000000	
Mg		0.40786199		2.72520282		1.37499987		-0.00059420		-0.00027362		-0.00000000	
Mg		4.57213786		5.46104791		1.37499987		 0.00059420		 0.00027362		-0.00000000	
Mg		2.08213793		6.81832794		1.37499987		 0.00059420		-0.00027362		0.00000000	
Mg		2.89786191		1.36792279		1.37499987		-0.00059420		 0.00027362		0.00000000	
O		1.07767197		0.36674412		1.37499987		-0.00070252		-0.00044423		0.00000000	
O		3.90232788		7.81950562		1.37499987		 0.00070252		 0.00044423		0.00000000	
O		1.41232796		4.45986874		1.37499987		 0.00070252		-0.00044423		-0.00000000	
O		3.56767189		3.72638100		1.37499987		-0.00070252		 0.00044423		0.00000000	
O		1.95464994		2.52709494		0.00000000		 0.00025396		-0.00019283		0.00000000	
O		3.02534991		5.65915479		0.00000000		-0.00025396		 0.00019283		0.00000000	
O		0.53534998		6.62021956		0.00000000		-0.00025396		-0.00019283		0.00000000	
O		4.44464986		1.56603017		0.00000000		 0.00025396		 0.00019283		0.00000000	
