# total energy = -18277.9454276 eV

CRYSTAL
PRIMVEC
		5.33599998		0.00000000		-0.21343979
		-2.66799732		4.62110914		0.10671989
		-0.58456163		0.00000000		14.61399805
PRIMECORD
   28 1
Mg		1.64364976		0.00000000		3.12668085		 0.00092269		-0.00000000		 0.00027038
Mg		-1.01367771		1.53420900		3.23297406		-0.00028909		 0.00047856		 0.00008401
Mg		1.65432175		3.08690174		3.12625363		-0.00028909		-0.00047856		 0.00008401
Mg		3.14426582		0.00000000		10.36196543		-0.00064876		-0.00000000		-0.00015647
Mg		-2.20240616		3.08690174		10.57583244		-0.00032945		 0.00008742		-0.00013422
Mg		0.46559384		1.53420900		10.46911255		-0.00032945		-0.00008742		-0.00013422
Si		-0.01706909		3.08074067		0.42672898		 0.00005721		-0.00005972		-0.00018879
Si		2.35865115		1.54037007		7.62700864		-0.00000064		 0.00000070		-0.00002060
Si		-0.30934884		3.08074067		7.73372854		-0.00000064		-0.00000070		-0.00002060
Si		2.65093090		1.54037114		0.32000908		 0.00005721		 0.00005972		-0.00018879
O		-0.08218884		3.08074067		2.05472802		 0.00067120		 0.00052119		-0.00010393
O		2.29353087		1.54037007		9.25500769		-0.00006596		 0.00022219		-0.00009244
O		-0.37446912		3.08074067		9.36172758		-0.00006596		-0.00022219		-0.00009244
O		2.58581115		1.54037114		1.94800813		 0.00067120		-0.00052119		-0.00010393
O		2.05668469		0.00000000		14.37703439		-0.00034911		-0.00000000		 0.00037932
O		-1.89729108		2.28282897		14.53519334		-0.00007001		 0.00008278		-0.00034797
O		0.77070891		2.33828284		14.42847344		-0.00007001		-0.00008278		-0.00034797
O		2.41299691		0.00000000		7.06747257		 0.00006565		-0.00000000		 0.00004507
O		-1.63702676		2.33828284		7.22947384		-0.00007397		 0.00003634		 0.00023137
O		1.03097269		2.28282897		7.12275395		-0.00007397		-0.00003634		 0.00023137
O		3.39020807		0.00000000		4.03584900		-0.00011198		-0.00000000		 0.00073768
O		-1.94579191		3.08074067		4.24928879		 0.00023552		 0.00001703		 0.00028389
O		0.72220808		1.54037007		4.14256890		 0.00023552		-0.00001703		 0.00028389
O		1.31926113		0.00000000		11.41399534		-0.00023725		0.00000000		-0.00055043
O		-1.34873887		1.54037007		11.52071523		 0.00030502		 0.00074201		 0.00005455
O		1.31926113		3.08074067		11.41399534		 0.00030502		-0.00074201		 0.00005455
O		-0.08417702		0.00000000		2.10441600		-0.00013845		-0.00000000		 0.00037352
O		-0.37645677		0.00000000		9.41141556		-0.00038245		-0.00000000		-0.00063086
