# total energy = -18278.4973527 eV

CRYSTAL
PRIMVEC
		5.33599998		0.00000000		0.21343979
		-2.66799732		4.62110914		-0.10671989
		0.58456163		0.00000000		14.61399805
PRIMECORD
   28 1
Mg		1.89945389		0.00000000		3.26840459		-0.00115542		0.00000000		 0.00093980
Mg		-0.75787412		1.53420900		3.16211192		-0.00047416		-0.00054857		 0.00069007
Mg		1.91012587		3.08690174		3.26883181		-0.00047416		 0.00054857		 0.00069007
Mg		3.98462997		0.00000000		10.64712073		 0.00214614		0.00000000		 0.00030198
Mg		-1.36204200		3.08690174		10.43325479		-0.00112262		 0.00043508		-0.00085146
Mg		1.30595799		1.53420900		10.53997469		-0.00112262		-0.00043508		-0.00085146
Si		0.01706909		3.08074067		0.42672898		-0.00016065		 0.00014421		 0.00053979
Si		2.97734883		1.54037007		7.84044843		 0.00028647		-0.00006341		-0.00122900
Si		0.30934884		3.08074067		7.73372854		 0.00028647		 0.00006341		-0.00122900
Si		2.68506909		1.54037114		0.53344887		-0.00016065		-0.00014421		 0.00053979
O		0.08218884		3.08074067		2.05472802		 0.00074691		 0.00070527		 0.00057796
O		3.04246912		1.54037007		9.46844747		 0.00022759		-0.00028438		-0.00157186
O		0.37446912		3.08074067		9.36172758		 0.00022759		 0.00028438		-0.00157186
O		2.75018883		1.54037114		2.16144791		 0.00074691		-0.00070527		 0.00057796
O		3.21528282		0.00000000		14.58791352		 0.00007504		-0.00000000		-0.00029929
O		-0.73869295		2.28282897		14.42975457		 0.00003507		-0.00015011		 0.00026029
O		1.92930704		2.33828284		14.53647447		 0.00003507		 0.00015011		 0.00026029
O		2.98703501		0.00000000		7.28347462		-0.00022721		0.00000000		 0.00081042
O		-1.06298920		2.33828284		7.12147388		-0.00033043		 0.00141061		 0.00015057
O		1.60501080		2.28282897		7.22819378		-0.00033043		-0.00141061		 0.00015057
O		3.72445858		0.00000000		4.32043556		-0.00091961		0.00000000		-0.00017666
O		-1.61154087		3.08074067		4.10699578		 0.00062703		 0.00028951		 0.00038948
O		1.05645912		1.54037007		4.21371567		 0.00062703		-0.00028951		 0.00038948
O		2.23807166		0.00000000		11.55628835		 0.00070080		0.00000000		 0.00023085
O		-0.42992780		1.54037007		11.44956846		-0.00014228		-0.00074685		-0.00036315
O		2.23807166		3.08074067		11.55628835		-0.00014228		 0.00074685		-0.00036315
O		0.08417702		0.00000000		2.10441600		 0.00083807		-0.00000000		 0.00052861
O		0.37645677		0.00000000		9.41141556		-0.00084372		0.00000000		 0.00047886
