# total energy = -18278.0488783 eV

CRYSTAL
PRIMVEC
		5.33600083		0.00000000		0.64031881
		-2.66799773		4.62111386		-0.32016209
		1.75368191		0.00000000		14.61399977
PRIMECORD
   28 1
Mg		2.15525684		0.00000000		3.41012908		 0.00078297		-0.00000000		-0.00040044
Mg		-0.50207078		1.53420913		3.09124983		-0.00021465		-0.00022026		-0.00072796
Mg		2.16592909		3.08690204		3.41140977		-0.00021465		 0.00022026		-0.00072796
Mg		4.82499315		0.00000000		10.93227705		-0.00002556		-0.00000000		 0.00060678
Mg		-0.52167885		3.08690204		10.29067701		 0.00054598		 0.00000468		-0.00016339
Mg		2.14632103		1.53420913		10.61083696		 0.00054598		-0.00000468		-0.00016339
Si		0.05120723		3.08074096		0.42672926		 0.00011047		 0.00004072		 0.00015743
Si		3.59604699		1.54037021		8.05388909		-0.00017011		-0.00010383		 0.00007166
Si		0.92804819		3.08074096		7.73372915		-0.00017011		 0.00010383		 0.00007166
Si		2.71920818		1.54037075		0.74688921		 0.00011047		-0.00004072		 0.00015743
O		0.24656721		3.08074096		2.05472822		 0.00040686		 0.00010609		 0.00012230
O		3.79140697		1.54037021		9.68188804		-0.00054170		 0.00019895		 0.00011739
O		1.12340709		3.08074096		9.36172810		-0.00054170		-0.00019895		 0.00011739
O		2.91456709		1.54037075		2.37488816		 0.00040686		-0.00010609		 0.00012230
O		4.37388077		0.00000000		14.79879176		-0.00042611		0.00000000		 0.00055557
O		0.41990500		2.28282886		14.32431469		 0.00036578		-0.00024328		 0.00035217
O		3.08790488		2.33828285		14.64447463		 0.00036578		 0.00024328		 0.00035217
O		3.56107277		0.00000000		7.49947602		-0.00000032		0.00000000		-0.00014232
O		-0.48895109		2.33828285		7.01347273		 0.00018945		-0.00036414		-0.00001034
O		2.17904879		2.28282886		7.33363321		 0.00018945		 0.00036414		-0.00001034
O		4.05871085		0.00000000		4.60502272		-0.00038710		0.00000000		-0.00029914
O		-1.27728998		3.08074096		3.96470284		-0.00036141		-0.00042692		-0.00015953
O		1.39070990		1.54037021		4.28486278		-0.00036141		 0.00042692		-0.00015953
O		3.15688379		0.00000000		11.69858300		 0.00016080		-0.00000000		-0.00005082
O		0.48888391		1.54037021		11.37842306		-0.00017734		-0.00055366		-0.00016813
O		3.15688379		3.08074096		11.69858300		-0.00017734		 0.00055366		-0.00016813
O		0.25252998		0.00000000		2.10441614		-0.00038685		0.00000000		-0.00022055
O		1.12936986		0.00000000		9.41141602		-0.00002450		0.00000000		 0.00076770
