# total energy = -18277.973022 eV

CRYSTAL
PRIMVEC
		5.33599862		0.00000000		-0.42687882
		-2.66800198		4.62110975		0.21344209
		-1.16912176		0.00000000		14.61399789
PRIMECORD
   28 1
Mg		1.51574822		0.00000000		3.05581908		 0.00053331		-0.00000000		 0.00015725
Mg		-1.14157926		1.53420927		3.26840521		 0.00013783		 0.00040739		 0.00004506
Mg		1.52642005		3.08690208		3.05496526		 0.00013783		-0.00040739		 0.00004506
Mg		2.72408426		0.00000000		10.21938845		-0.00008861		-0.00000000		-0.00031636
Mg		-2.62258726		3.08690208		10.64712108		-0.00069207		-0.00031211		-0.00025003
Mg		0.04541205		1.53420927		10.43368114		-0.00069207		 0.00031211		-0.00025003
Si		-0.03413799		3.08074126		0.42672893		 0.00070126		 0.00014594		 0.00022974
Si		2.04930097		1.54037010		7.52028901		 0.00031792		-0.00025909		-0.00008680
Si		-0.61869780		3.08074126		7.73372895		 0.00031792		 0.00025909		-0.00008680
Si		2.63386185		1.54037117		0.21328899		 0.00070126		-0.00014594		 0.00022974
O		-0.16437819		3.08074126		2.05472789		-0.00011493		-0.00030742		 0.00045701
O		1.91906185		1.54037010		9.14828796		-0.00023417		-0.00002894		 0.00002472
O		-0.74893800		3.08074126		9.36172844		-0.00023417		 0.00002894		 0.00002472
O		2.50362219		1.54037117		1.84128795		-0.00011493		 0.00030742		 0.00045701
O		1.47738613		0.00000000		14.27159606		 0.00028015		0.00000000		-0.00016350
O		-2.47658983		2.28282930		14.58791409		 0.00016091		-0.00013273		 0.00004738
O		0.19141001		2.33828313		14.37447415		 0.00016091		 0.00013273		 0.00004738
O		2.12597803		0.00000000		6.95947318		-0.00024398		-0.00000000		-0.00078031
O		-1.92404607		2.33828313		7.28347498		-0.00030069		 0.00006695		 0.00011555
O		0.74395377		2.28282930		7.07003503		-0.00030069		-0.00006695		 0.00011555
O		3.22308202		0.00000000		3.89355611		 0.00020829		-0.00000000		-0.00019549
O		-2.11291820		3.08074126		4.32043600		-0.00045874		 0.00023945		-0.00006065
O		0.55508218		1.54037010		4.10699606		-0.00045874		-0.00023945		-0.00006065
O		0.85985476		0.00000000		11.34284925		-0.00040635		0.00000000		 0.00006972
O		-1.80814508		1.54037010		11.55628919		 0.00020917		-0.00015467		-0.00006571
O		0.85985476		3.08074126		11.34284925		 0.00020917		 0.00015467		-0.00006571
O		-0.16835283		0.00000000		2.10441595		 0.00040184		-0.00000000		-0.00013680
O		-0.75291317		0.00000000		9.41141597		-0.00013757		-0.00000000		 0.00045292
