# total energy = -18277.9730194 eV

CRYSTAL
PRIMVEC
		5.33599862		0.00000000		0.42687882
		-2.66800198		4.62110975		-0.21344209
		1.16912176		0.00000000		14.61399789
PRIMECORD
   28 1
Mg		2.02735508		0.00000000		3.33926725		-0.00000091		-0.00000000		-0.00018463
Mg		-0.62997293		1.53420927		3.12668112		 0.00065034		 0.00037692		-0.00022937
Mg		2.03802692		3.08690208		3.34012107		 0.00065034		-0.00037692		-0.00022937
Mg		4.40481128		0.00000000		10.78969898		-0.00042774		-0.00000000		 0.00030332
Mg		-0.94186024		3.08690208		10.36196635		-0.00013510		-0.00036127		 0.00004222
Mg		1.72613906		1.53420927		10.57540630		-0.00013510		 0.00036127		 0.00004222
Si		0.03413799		3.08074126		0.42672893		-0.00019393		 0.00018306		-0.00009973
Si		3.28669818		1.54037010		7.94716889		-0.00059026		-0.00007923		 0.00019006
Si		0.61869780		3.08074126		7.73372895		-0.00059026		 0.00007923		 0.00019006
Si		2.70213784		1.54037117		0.64016888		-0.00019393		-0.00018306		-0.00009973
O		0.16437819		3.08074126		2.05472789		 0.00023344		 0.00000353		-0.00006826
O		3.41693784		1.54037010		9.57516839		 0.00013539		 0.00034009		 0.00031065
O		0.74893800		3.08074126		9.36172844		 0.00013539		-0.00034009		 0.00031065
O		2.83237803		1.54037117		2.26816784		 0.00023344		-0.00000353		-0.00006826
O		3.79458200		0.00000000		14.69335308		 0.00024074		0.00000000		-0.00073200
O		-0.15939397		2.28282930		14.37703505		 0.00017792		-0.00013542		 0.00018215
O		2.50860588		2.33828313		14.59047553		 0.00017792		 0.00013542		 0.00018215
O		3.27405428		0.00000000		7.39147540		-0.00030301		0.00000000		-0.00012278
O		-0.77596982		2.33828313		7.06747306		-0.00028551		 0.00007897		 0.00017187
O		1.89203002		2.28282930		7.28091301		-0.00028551		-0.00007897		 0.00017187
O		3.89158512		0.00000000		4.46272912		 0.00040674		-0.00000000		-0.00000855
O		-1.44441510		3.08074126		4.03584923		-0.00010601		 0.00024363		-0.00013578
O		1.22358528		1.54037010		4.24928917		-0.00010601		-0.00024363		-0.00013578
O		2.69747801		0.00000000		11.62743602		-0.00021380		0.00000000		-0.00011987
O		0.02947817		1.54037010		11.41399607		 0.00043000		-0.00035392		-0.00008112
O		2.69747801		3.08074126		11.62743602		 0.00043000		 0.00035392		-0.00008112
O		0.16835283		0.00000000		2.10441595		 0.00010237		-0.00000000		 0.00052886
O		0.75291317		0.00000000		9.41141597		-0.00043693		-0.00000000		-0.00022978
