# total energy = -44009.6248012 eV	

CRYSTAL	
PRIMVEC	
		9.81799702		-0.78543779		0.00000000	
		-1.44375965		18.04700547		0.00000000	
		-1.33411649		0.10672774		5.10350874	
PRIMCOORD
   82 1	
Si		2.23625747		1.32734505		1.51267863		 0.00017425		-0.00026853		 0.00019809	
Si		4.80386046		16.04094446		3.59082519		-0.00017425		 0.00026853		-0.00019809	
Si		6.00506959		1.02584016		3.59082519		-0.00002330		 0.00056064		-0.00003642	
Si		1.03505031		16.34244935		1.51267863		 0.00002330		-0.00056064		 0.00003642	
Si		6.42337812		9.95812594		1.51267863		 0.00022452		-0.00021961		 0.00021928	
Si		0.61674177		7.41016456		3.59082519		-0.00022452		 0.00021961		-0.00021928	
Si		0.37419027		10.44206081		3.59082519		-0.00010721		 0.00054274		-0.00005272	
Si		6.66592963		6.92622969		1.51267863		 0.00010721		-0.00054274		 0.00005272	
Si		1.51453031		2.94691689		4.10423823		-0.00051777		-0.00024805		 0.00014078	
Si		5.52558959		14.42137262		0.99926559		 0.00051777		 0.00024805		-0.00014078	
Si		6.47529512		2.55005634		0.99926559		-0.00062832		-0.00006869		-0.00012868	
Si		0.56482477		14.81823318		4.10423823		 0.00062832		 0.00006869		 0.00012868	
Si		5.70164899		11.57769778		4.10423823		-0.00037688		-0.00017976		 0.00015342	
Si		1.33846991		5.79059174		0.99926559		 0.00037688		 0.00017976		-0.00015342	
Si		0.84441482		11.96627699		0.99926559		-0.00072292		 0.00003614		-0.00012966	
Si		6.19570409		5.40201351		4.10423823		 0.00072292		-0.00003614		 0.00012966	
O		2.41738339		1.93149244		3.00290168		-0.00008651		 0.00056708		-0.00020158	
O		4.62273552		15.43679905		2.10060213		 0.00008651		-0.00056708		 0.00020158	
O		5.72432519		1.66693745		2.10060213		-0.00034861		 0.00026154		 0.00068116	
O		1.31579372		15.70135404		3.00290168		 0.00034861		-0.00026154		-0.00068116	
O		6.60450306		10.56227135		3.00290168		-0.00007317		 0.00055576		-0.00024222	
O		0.43561683		6.80601816		2.10060213		 0.00007317		-0.00055576		 0.00024222	
O		0.09344587		11.08315711		2.10060213		-0.00033205		 0.00022680		 0.00072799	
O		6.94667402		6.28513241		3.00290168		 0.00033205		-0.00022680		-0.00072799	
O		0.68287042		1.48747902		1.10797108		 0.00065330		-0.00003513		 0.00002036	
O		6.35724947		15.88081049		3.99553273		-0.00065330		 0.00003513		-0.00002036	
O		7.55268294		0.93789418		3.99553273		 0.00014123		 0.00022440		-0.00009607	
O		-0.51256403		16.43039534		1.10797108		-0.00014123		-0.00022440		 0.00009607	
O		4.86999009		10.11825991		1.10797108		 0.00059941		-0.00004733		 0.00000182	
O		2.17012980		7.25003059		3.99553273		-0.00059941		 0.00004733		-0.00000182	
O		1.92180263		10.35411483		3.99553273		 0.00017383		 0.00021121		-0.00008716	
O		5.11831628		7.01417568		1.10797108		-0.00017383		-0.00021121		 0.00008716	
O		2.17108716		4.27332527		4.04860900		 0.00017516		 0.00024691		-0.00021292	
O		4.86903273		13.09496424		1.05489383		-0.00017516		-0.00024691		 0.00021292	
O		5.59668823		3.99927648		1.05489383		 0.00029066		-0.00000749		-0.00042844	
O		1.44343167		13.36901304		4.04860900		-0.00029066		 0.00000749		 0.00042844	
O		6.35820683		12.90410616		4.04860900		 0.00007263		 0.00011608		-0.00022177	
O		0.68191306		4.46418533		1.05489383		-0.00007263		-0.00011608		 0.00022177	
O		-0.03419208		13.41549811		1.05489383		 0.00034180		-0.00008897		-0.00041527	
O		7.07431197		3.95279337		4.04860900		-0.00034180		 0.00008897		 0.00041527	
O		2.91897030		-0.23351766		1.49073325		 0.00016749		 0.00011644		-0.00027427	
O		5.56491023		-0.44519337		3.61276958		-0.00016749		-0.00011644		 0.00027427	
O		7.10608899		8.39726322		1.49073325		 0.00019476		 0.00009073		-0.00026306	
O		-0.06597008		8.97102826		3.61276958		-0.00019476		-0.00009073		 0.00026306	
O		-0.04964180		3.07384372		3.69493694		-0.00014128		 0.00013427		 0.00017857	
O		7.08976070		14.29444580		1.40856688		 0.00014128		-0.00013427		-0.00017857	
O		8.03917766		2.42673931		1.40856688		-0.00058138		 0.00044286		 0.00077879	
O		-0.99905776		14.94155021		3.69493694		 0.00058138		-0.00044286		-0.00077879	
O		4.13747788		11.70462461		3.69493694		-0.00022280		 0.00010650		 0.00014159	
O		2.90264103		5.66366589		1.40856688		 0.00022280		-0.00010650		-0.00014159	
O		2.40829834		11.84295995		1.40856688		-0.00052248		 0.00041854		 0.00078361	
O		4.63182156		5.52533055		3.69493694		 0.00052248		-0.00041854		-0.00078361	
O		0.12188986		-0.00975087		3.65002580		-0.00065772		 0.00079350		 0.00029716	
O		8.36198968		-0.66895917		1.45347802		 0.00065772		-0.00079350		-0.00029716	
O		4.30900953		8.62102903		3.65002580		-0.00087111		 0.00073925		 0.00025395	
O		2.73111036		8.74726049		1.45347802		 0.00087111		-0.00073925		-0.00025395	
O		3.07569540		2.16214492		0.50626831		-0.00022012		-0.00013618		-0.00058155	
O		3.96442351		15.20614558		4.59723550		 0.00022012		 0.00013618		 0.00058155	
O		5.02038993		2.00656924		4.59723550		-0.00025504		 0.00015276		-0.00065389	
O		2.01972898		15.36172028		0.50626831		 0.00025504		-0.00015276		 0.00065389	
O		7.26281606		10.79292482		0.50626831		-0.00023452		-0.00017074		-0.00055034	
O		-0.22269616		6.57536470		4.59723550		 0.00023452		 0.00017074		 0.00055034	
O		-0.61049038		11.42278989		4.59723550		-0.00021724		 0.00011624		-0.00068525	
O		7.65060928		5.94550061		0.50626831		 0.00021724		-0.00011624		 0.00068525	
Ca		-1.06784771		5.06321202		2.55175240		 0.00054254		-0.00060977		 0.00025296	
Ca		-1.71003237		13.09051725		2.55175240		-0.00054254		 0.00060977		-0.00025296	
Ca		3.11927196		13.69399291		2.55175240		 0.00054307		-0.00061438		 0.00025816	
Ca		3.92084794		3.67429759		2.55175240		-0.00054307		 0.00061438		-0.00025816	
Mg		0.00000000		0.00000000		0.00000000		0.00000000		0.00000000		0.00000000	
Mg		4.18711967		8.63077990		0.00000000		0.00000000		0.00000000		0.00000000	
Mg		-0.25496762		3.18709962		0.00000000		 0.00004303		-0.00028286		-0.00018751	
Mg		-1.18879203		14.85990093		0.00000000		-0.00004303		 0.00028286		 0.00018751	
Mg		3.93215206		11.81787953		0.00000000		 0.00005667		-0.00029217		-0.00018862	
Mg		4.44208827		5.44368028		0.00000000		-0.00005667		 0.00029217		 0.00018862	
Mg		-0.79382157		1.63789166		2.55175240		-0.00066139		 0.00010528		 0.00050660	
Mg		-1.98405753		16.51583860		2.55175240		 0.00066139		-0.00010528		-0.00050660	
Mg		3.39329810		10.26867157		2.55175240		-0.00068270		 0.00021994		 0.00046904	
Mg		3.64682180		7.09961894		2.55175240		 0.00068270		-0.00021994		-0.00046904	
H		0.92650929		-0.07412141		3.92969759		 0.00031868		 0.00002533		-0.00043429	
H		7.55737025		-0.60458962		1.17380622		-0.00031868		-0.00002533		 0.00043429	
H		5.11362897		8.55665947		3.92969759		 0.00052765		 0.00005197		-0.00038245	
H		1.92648994		8.81163103		1.17380622		-0.00052765		-0.00005197		 0.00038245	
