# total energy = -44009.6248001 eV	

CRYSTAL	
PRIMVEC	
		9.81799702		0.78543779		0.00000000	
		1.44375965		18.04700547		0.00000000	
		-1.33411649		-0.10672774		5.10350874	
PRIMCOORD
   82 1	
Si		2.47880996		1.70455120		1.51267863		 0.00002349		 0.00055981		 0.00003696	
Si		7.44883022		17.02116039		3.59082519		-0.00002349		-0.00055981		-0.00003696	
Si		6.24762109		2.00605609		3.59082519		-0.00017278		-0.00026850		-0.00019746	
Si		3.68001810		16.71965550		1.51267863		 0.00017278		 0.00026850		 0.00019746	
Si		8.10969026		11.12077086		1.51267863		 0.00010890		 0.00054055		 0.00005362	
Si		1.81794992		7.60493974		3.59082519		-0.00010890		-0.00054055		-0.00005362	
Si		2.06050240		10.63683599		3.59082519		-0.00022663		-0.00022166		-0.00021973	
Si		7.86713777		8.08887461		1.51267863		 0.00022663		 0.00022166		 0.00021973	
Si		2.00858540		3.22876737		4.10423823		 0.00063293		-0.00006434		 0.00012901	
Si		7.91905477		15.49694323		0.99926559		-0.00063293		 0.00006434		-0.00012901	
Si		6.96935022		3.62562793		0.99926559		 0.00051046		-0.00024148		-0.00014068	
Si		2.95828996		15.10008267		4.10423823		-0.00051046		 0.00024148		 0.00014068	
Si		7.63946374		12.64498704		4.10423823		 0.00072460		 0.00003367		 0.00013002	
Si		2.28817447		6.08072356		0.99926559		-0.00072460		-0.00003367		-0.00013002	
Si		2.78222956		12.25640783		0.99926559		 0.00038340		-0.00018812		-0.00015416	
Si		7.14540963		6.46930277		4.10423823		-0.00038340		 0.00018812		 0.00015416	
O		2.75955435		2.34564651		3.00290168		 0.00034912		 0.00026148		-0.00068210	
O		7.16808484		16.38006409		2.10060213		-0.00034912		-0.00026148		 0.00068210	
O		6.06649615		2.61020249		2.10060213		 0.00008730		 0.00056705		 0.00020155	
O		3.86114304		16.11550910		3.00290168		-0.00008730		-0.00056705		-0.00020155	
O		8.39043367		11.76186716		3.00290168		 0.00033214		 0.00022832		-0.00072769	
O		1.53720552		6.96384344		2.10060213		-0.00033214		-0.00022832		 0.00072769	
O		1.87937648		11.24098239		2.10060213		 0.00007388		 0.00055701		 0.00024169	
O		8.04826271		7.48472821		3.00290168		-0.00007388		-0.00055701		-0.00024169	
O		0.93119562		1.61660521		1.10797108		-0.00014117		 0.00022508		 0.00009586	
O		8.99644259		17.10910539		3.99553273		 0.00014117		-0.00022508		-0.00009586	
O		7.80101011		2.16619005		3.99553273		-0.00065442		-0.00003462		-0.00002118	
O		2.12663007		16.55952054		1.10797108		 0.00065442		 0.00003462		 0.00002118	
O		6.56207593		11.03282586		1.10797108		-0.00017593		 0.00021220		 0.00008648	
O		3.36556326		7.69288572		3.99553273		 0.00017593		-0.00021220		-0.00008648	
O		3.61388945		10.79697094		3.99553273		-0.00059714		-0.00004744		-0.00000159	
O		6.31374974		7.92874064		1.10797108		 0.00059714		 0.00004744		 0.00000159	
O		2.88719230		4.67798653		4.04860900		-0.00029330		-0.00001216		 0.00042862	
O		7.04044788		14.04772309		1.05489383		 0.00029330		 0.00001216		-0.00042862	
O		6.31279238		4.95203532		1.05489383		-0.00017182		 0.00024004		 0.00021376	
O		3.61484681		13.77367429		4.04860900		 0.00017182		-0.00024004		-0.00021376	
O		8.51807162		14.09420717		4.04860900		-0.00034239		-0.00008882		 0.00041565	
O		1.40956757		4.63150342		1.05489383		 0.00034239		 0.00008882		-0.00041565	
O		2.12567271		13.58281522		1.05489383		-0.00007823		 0.00012300		 0.00022320	
O		7.80196648		5.14289439		4.04860900		 0.00007823		-0.00012300		-0.00022320	
O		2.91897030		0.23351766		1.49073325		 0.00016795		-0.00011496		-0.00027464	
O		5.56491023		0.44519337		3.61276958		-0.00016795		 0.00011496		 0.00027464	
O		8.54984962		9.64973733		1.49073325		 0.00019422		-0.00009052		-0.00026338	
O		1.37778957		9.07597327		3.61276958		-0.00019422		 0.00009052		 0.00026338	
O		0.44470189		3.10544935		3.69493694		 0.00057785		 0.00044323		-0.00077834	
O		9.48293731		15.62026124		1.40856688		-0.00057785		-0.00044323		 0.00077834	
O		8.53352035		3.75255475		1.40856688		 0.00014403		 0.00013276		-0.00017653	
O		1.39411785		14.97315584		3.69493694		-0.00014403		-0.00013276		 0.00017653	
O		6.07558219		12.52167000		3.69493694		 0.00052054		 0.00041973		-0.00078286	
O		3.85205799		6.20404158		1.40856688		-0.00052054		-0.00041973		 0.00078286	
O		4.34640167		12.38333564		1.40856688		 0.00022066		 0.00010564		-0.00014090	
O		5.58123753		6.34237594		3.69493694		-0.00022066		-0.00010564		 0.00014090	
O		0.12188986		0.00975087		3.65002580		-0.00065332		-0.00079225		 0.00029820	
O		8.36198968		0.66895917		1.45347802		 0.00065332		 0.00079225		-0.00029820	
O		5.75277017		9.42597152		3.65002580		-0.00087703		-0.00073635		 0.00025254	
O		4.17487001		9.29974006		1.45347802		 0.00087703		 0.00073635		-0.00025254	
O		3.46348863		2.68527929		0.50626831		 0.00025448		 0.00015195		 0.00065488	
O		6.46414958		16.04043131		4.59723550		-0.00025448		-0.00015195		-0.00065488	
O		5.40818414		2.84085497		4.59723550		 0.00022107		-0.00013679		 0.00058248	
O		4.51945505		15.88485563		0.50626831		-0.00022107		 0.00013679		-0.00058248	
O		9.09436992		12.10149994		0.50626831		 0.00021710		 0.00011717		 0.00068447	
O		0.83327124		6.62421066		4.59723550		-0.00021710		-0.00011717		-0.00068447	
O		1.22106349		11.47163585		4.59723550		 0.00023486		-0.00016962		 0.00055300	
O		8.70657571		7.25407573		0.50626831		-0.00023486		 0.00016962		-0.00055300	
Ca		-0.26627173		4.95648231		2.55175240		-0.00054333		-0.00060754		-0.00025373	
Ca		0.37591194		12.98378853		2.55175240		 0.00054333		 0.00060754		 0.00025373	
Ca		5.36460759		14.37270296		2.55175240		-0.00054408		-0.00061433		-0.00025865	
Ca		4.56303161		4.35300764		2.55175240		 0.00054408		 0.00061433		 0.00025865	
Mg		0.00000000		0.00000000		0.00000000		0.00000000		0.00000000		0.00000000	
Mg		5.63088031		9.41621966		0.00000000		0.00000000		0.00000000		0.00000000	
Mg		0.25496762		3.18709962		0.00000000		-0.00004157		-0.00028243		 0.00018762	
Mg		1.18879203		14.85990093		0.00000000		 0.00004157		 0.00028243		-0.00018762	
Mg		5.88584792		12.60331929		0.00000000		-0.00005511		-0.00029253		 0.00018942	
Mg		5.37591171		6.22912004		0.00000000		 0.00005511		 0.00029253		-0.00018942	
Mg		-0.54029788		1.53116195		2.55175240		 0.00066113		 0.00010527		-0.00050723	
Mg		0.64993808		16.40910889		2.55175240		-0.00066113		-0.00010527		 0.00050723	
Mg		5.09058145		10.94738260		2.55175240		 0.00068227		 0.00021978		-0.00046998	
Mg		4.83705775		7.77832898		2.55175240		-0.00068227		-0.00021978		 0.00046998	
H		0.92650929		0.07412141		3.92969759		 0.00031640		-0.00002571		-0.00043474	
H		7.55737025		0.60458962		1.17380622		-0.00031640		 0.00002571		 0.00043474	
H		6.55738862		9.49034108		3.92969759		 0.00053457		-0.00005407		-0.00038069	
H		3.37024959		9.23536952		1.17380622		-0.00053457		 0.00005407		 0.00038069	
