# total energy = -44012.2034655 eV	

CRYSTAL	
PRIMVEC	
		9.81800030		-0.39271962		0.00000000	
		-0.72187581		18.04700325		0.00000000	
		-1.33412459		0.05336420		5.10350778	
PRIMCOORD
   82 1	
Si		2.29689588		1.42164738		1.51267898		-0.00026365		 0.00011679		-0.00047766	
Si		5.46510304		16.28599848		3.59082488		 0.00026365		-0.00011679		 0.00047766	
Si		6.06570721		1.27089426		3.59082488		-0.00021645		-0.00034088		-0.00014343	
Si		1.69629171		16.43675160		1.51267898		 0.00021645		 0.00034088		 0.00014343	
Si		6.84495616		10.24878723		1.51267898		-0.00026360		 0.00011044		-0.00047565	
Si		0.91704374		7.45885863		3.59082488		 0.00026360		-0.00011044		 0.00047565	
Si		0.79576817		10.49075471		3.59082488		-0.00021377		-0.00034068		-0.00014088	
Si		6.96623173		7.21689115		1.51267898		 0.00021377		 0.00034068		 0.00014088	
Si		1.63804406		3.01738034		4.10423837		-0.00000349		 0.00035868		-0.00039077	
Si		6.12395583		14.69026552		0.99926646		 0.00000349		-0.00035868		 0.00039077	
Si		6.59880876		2.81894925		0.99926646		 0.00001568		 0.00002297		-0.00007290	
Si		1.16319114		14.88869563		4.10423837		-0.00001568		-0.00002297		 0.00007290	
Si		6.18610336		11.84452019		4.10423837		-0.00000236		 0.00036722		-0.00039620	
Si		1.57589555		5.86312469		0.99926646		 0.00000236		-0.00036722		 0.00039620	
Si		1.32886874		12.03880970		0.99926646		 0.00001191		 0.00000268		-0.00006654	
Si		6.43313115		5.66883617		4.10423837		-0.00001191		-0.00000268		 0.00006654	
O		2.50292629		2.03503105		3.00290195		 0.00014966		-0.00031399		-0.00017375	
O		5.25907361		15.67261481		2.10060190		-0.00014966		 0.00031399		 0.00017375	
O		5.80986759		1.90275249		2.10060190		 0.00011127		 0.00022979		-0.00022123	
O		1.95213133		15.80489239		3.00290195		-0.00011127		-0.00022979		 0.00022123	
O		7.05098559		10.86217090		3.00290195		 0.00014122		-0.00032934		-0.00017308	
O		0.71101431		6.84547398		2.10060190		-0.00014122		 0.00032934		 0.00017308	
O		0.53992757		11.12261294		2.10060190		 0.00009634		 0.00021152		-0.00020811	
O		7.22207134		6.58503193		3.00290195		-0.00009634		-0.00021152		 0.00020811	
O		0.74495084		1.51976145		1.10797084		-0.00077580		-0.00052125		-0.00004478	
O		7.01704808		16.18788343		3.99553302		 0.00077580		 0.00052125		 0.00004478	
O		7.61476443		1.24496777		3.99553302		 0.00018320		-0.00001511		 0.00004449	
O		0.14723547		16.46267711		1.10797084		-0.00018320		 0.00001511		-0.00004449	
O		5.29301112		10.34690228		1.10797084		-0.00077518		-0.00053523		-0.00003219	
O		2.46898780		7.36074456		3.99553302		 0.00077518		 0.00053523		 0.00003219	
O		2.34482540		10.46482920		3.99553302		 0.00018283		-0.00004291		 0.00005334	
O		5.41717450		7.24281666		1.10797084		-0.00018283		 0.00004291		-0.00005334	
O		2.35011269		4.37449055		4.04860932		-0.00017196		-0.00000471		 0.00040296	
O		5.41188721		13.33315531		1.05489355		 0.00017196		 0.00000471		-0.00040296	
O		5.77571391		4.23746709		1.05489355		-0.00030623		 0.00019239		-0.00030259	
O		1.98628598		13.47017877		4.04860932		 0.00030623		-0.00019239		 0.00030259	
O		6.89817297		13.20163138		4.04860932		-0.00019833		-0.00001505		 0.00041012	
O		0.86382595		4.50601448		1.05489355		 0.00019833		 0.00001505		-0.00041012	
O		0.50577390		13.45732754		1.05489355		-0.00028855		 0.00017552		-0.00028491	
O		7.25622502		4.25031930		4.04860932		 0.00028855		-0.00017552		 0.00028491	
O		2.91896953		-0.11675862		1.49073294		 0.00019794		-0.00053179		-0.00005276	
O		5.56491010		-0.22259581		3.61276993		-0.00019794		 0.00053179		 0.00005276	
O		7.46702883		8.71038221		1.49073294		 0.00022007		-0.00052674		-0.00003144	
O		0.29497009		8.99726365		3.61276993		-0.00022007		 0.00052674		 0.00003144	
O		0.07394444		3.08174458		3.69493665		-0.00052568		-0.00001565		-0.00010001	
O		7.68805546		14.62590030		1.40856721		 0.00052568		 0.00001565		 0.00010001	
O		8.16276394		2.75819306		1.40856721		 0.00001245		 0.00001291		 0.00040454	
O		-0.40076404		14.94945182		3.69493665		-0.00001245		-0.00001291		-0.00040454	
O		4.62200374		11.90888541		3.69493665		-0.00054156		-0.00005757		-0.00010416	
O		3.13999616		5.79875946		1.40856721		 0.00054156		 0.00005757		 0.00010416	
O		2.89282392		11.97805351		1.40856721		 0.00000731		-0.00001068		 0.00041218	
O		4.86917597		5.72959333		3.69493665		-0.00000731		 0.00001068		-0.00041218	
O		0.12188968		-0.00487559		3.65002563		 0.00053651		 0.00004823		 0.00026499	
O		8.36198995		-0.33447983		1.45347822		-0.00053651		-0.00004823		-0.00026499	
O		4.66994996		8.82226524		3.65002563		 0.00054154		 0.00006076		 0.00027016	
O		3.09204993		8.88538062		1.45347822		-0.00054154		-0.00006076		-0.00027016	
O		3.17264353		2.29292820		0.50626814		-0.00012004		-0.00018647		-0.00029057	
O		4.58935637		15.41471668		4.59723572		 0.00012004		 0.00018647		 0.00029057	
O		5.11733865		2.21514087		4.59723572		-0.00022461		 0.00024010		 0.00005708	
O		2.64466125		15.49250500		0.50626814		 0.00022461		-0.00024010		-0.00005708	
O		7.72070381		11.12006903		0.50626814		-0.00013812		-0.00020644		-0.00030405	
O		0.04129609		6.58757683		4.59723572		 0.00013812		 0.00020644		 0.00030405	
O		-0.15260136		11.43500132		4.59723572		-0.00023554		 0.00021711		 0.00005353	
O		7.91460126		6.27264454		0.50626814		 0.00023554		-0.00021711		-0.00005353	
Ca		-0.86745365		5.03652987		2.55175193		-0.00016968		-0.00022744		 0.00027268	
Ca		-1.18854576		13.06383561		2.55175193		 0.00016968		 0.00022744		-0.00027268	
Ca		3.68060565		13.86366972		2.55175193		-0.00018255		-0.00022900		 0.00028277	
Ca		4.08139425		3.84397614		2.55175193		 0.00018255		 0.00022900		-0.00028277	
Mg		0.00000000		0.00000000		0.00000000		0.00000000		0.00000000		0.00000000	
Mg		4.54806028		8.82713985		0.00000000		0.00000000		0.00000000		0.00000000	
Mg		-0.12748354		3.18710031		0.00000000		-0.00016023		-0.00024958		-0.00008863	
Mg		-0.59439620		14.85990098		0.00000000		 0.00016023		 0.00024958		 0.00008863	
Mg		4.42057576		12.01424016		0.00000000		-0.00016608		-0.00023974		-0.00009227	
Mg		4.67554382		5.64003954		0.00000000		 0.00016608		 0.00023974		 0.00009227	
Mg		-0.73044100		1.61120868		2.55175193		 0.00011687		-0.00041313		-0.00012329	
Mg		-1.32555940		16.48915582		2.55175193		-0.00011687		 0.00041313		 0.00012329	
Mg		3.81761928		10.43834951		2.55175193		 0.00012351		-0.00044718		-0.00011783	
Mg		3.94438062		7.26929635		2.55175193		-0.00012351		 0.00044718		 0.00011783	
H		0.92650898		-0.03706016		3.92969785		-0.00055549		 0.00030541		-0.00004905	
H		7.55736967		-0.30229526		1.17380600		 0.00055549		-0.00030541		 0.00004905	
H		5.47456926		8.79007969		3.92969785		-0.00055218		 0.00032998		-0.00004401	
H		2.28742965		8.91756617		1.17380600		 0.00055218		-0.00032998		 0.00004401	
