# total energy = -4022.38413663 eV

CRYSTAL
PRIMVEC
		4.02872499		-0.00000395		0.00000000
		-0.00000395		4.02868554		-0.00000395
		0.00000000		-0.00000395		4.02871710
PRIMECORD
   5 1
Ca		0.00000000		0.00000000		0.00000000		-0.00000005		-0.00000005		-0.00000004
Mg		2.01435973		2.01434080		2.01435697		 0.00000001		 0.00000006		 0.00000003
O		2.01436052		2.01434316		0.00000000		 0.00000004		-0.00000001		 0.00000006
O		2.01436131		0.00000000		2.01435934		 0.00000001		 0.00000003		-0.00000006
O		0.00000000		2.01434237		2.01435697		-0.00000002		-0.00000002		 0.00000001
