# total energy = -4022.51332755 eV

CRYSTAL
PRIMVEC
		3.88179867		0.00000000		0.00000000
		0.00000000		3.88177500		0.00000000
		0.00000000		0.00000000		3.88177894
PRIMECORD
   5 1
Ca		0.00000000		0.00000000		0.00000000		-0.00000004		-0.00000001		 0.00000002
Mg		1.94089815		1.94088632		1.94088947		0.00000000		 0.00000004		-0.00000000
O		1.94089855		1.94088592		0.00000000		 0.00000001		-0.00000007		-0.00000007
O		1.94089855		0.00000000		1.94088908		-0.00000003		 0.00000005		 0.00000002
O		0.00000000		1.94088711		1.94088987		 0.00000005		-0.00000001		 0.00000003
