# total energy = -4022.38631422 eV

CRYSTAL
PRIMVEC
		3.80632347		0.00000000		0.00000000
		0.00000000		3.80629980		0.00000000
		0.00000000		0.00000000		3.80631164
PRIMECORD
   5 1
Ca		0.00000000		0.00000000		0.00000000		-0.00000002		0.00000000		 0.00000001
Mg		1.90316174		1.90315029		1.90315740		 0.00000003		-0.00000000		-0.00000001
O		1.90316174		1.90314990		0.00000000		-0.00000001		-0.00000000		-0.00000001
O		1.90316134		0.00000000		1.90315661		-0.00000003		-0.00000001		 0.00000004
O		0.00000000		1.90314990		1.90315740		 0.00000003		 0.00000001		-0.00000003
