# total energy = -4022.23962011 eV

CRYSTAL
PRIMVEC
		4.08211114		-0.00000395		-0.00000395
		-0.00000395		4.08206774		-0.00000395
		-0.00000395		-0.00000395		4.08211903
PRIMECORD
   5 1
Ca		0.00000000		0.00000000		0.00000000		-0.00000015		 0.00000021		 0.00000004
Mg		2.04105281		2.04103032		2.04105557		 0.00000012		-0.00000015		-0.00000009
O		2.04105951		2.04103190		0.00000000		-0.00000020		 0.00000004		-0.00000003
O		2.04105162		0.00000000		2.04105715		 0.00000008		-0.00000021		 0.00000001
O		0.00000000		2.04102874		2.04105596		 0.00000014		 0.00000012		 0.00000008
