# total energy = -12340.6649777 eV	

CRYSTAL	
PRIMVEC	
		2.46200010		0.00000000		0.00000000	
		0.00000000		8.05300044		0.00000000	
		0.00000000		0.00000000		6.10800066	
PRIMCOORD
   20 1	
O		0.00000000		0.58786900		1.52700017		0.00000000		 0.00045729		-0.00000020	
O		0.00000000		7.46513119		4.58100025		0.00000000		-0.00045729		 0.00000020	
O		1.23100005		4.61436922		1.52700017		0.00000000		 0.00045694		-0.00000013	
O		1.23100005		3.43863122		4.58100025		0.00000000		-0.00045694		 0.00000013	
O		0.00000000		2.92323907		2.69362802		0.00000000		 0.00012078		-0.00052472	
O		0.00000000		5.12976112		3.41437215		0.00000000		-0.00012078		 0.00052472	
O		0.00000000		5.12976112		5.74762811		0.00000000		-0.00011325		-0.00053725	
O		0.00000000		2.92323907		0.36037206		0.00000000		 0.00011325		 0.00053725	
O		1.23100005		6.94974028		2.69362802		0.00000000		 0.00012047		-0.00052450	
O		1.23100005		1.10326114		3.41437215		0.00000000		-0.00012047		 0.00052450	
O		1.23100005		1.10326114		5.74762811		0.00000000		-0.00011245		-0.00053762	
O		1.23100005		6.94974028		0.36037206		0.00000000		 0.00011245		 0.00053762	
Si		0.00000000		0.00000000		0.00000000		0.00000000		0.00000000		0.00000000	
Si		0.00000000		0.00000000		3.05400009		0.00000000		0.00000000		0.00000000	
Si		1.23100005		4.02650022		0.00000000		0.00000000		0.00000000		0.00000000	
Si		1.23100005		4.02650022		3.05400009		0.00000000		0.00000000		0.00000000	
Mg		0.00000000		2.03740898		4.58100025		0.00000000		 0.00026001		-0.00005466	
Mg		0.00000000		6.01559121		1.52700017		0.00000000		-0.00026001		 0.00005466	
Mg		1.23100005		6.06391018		4.58100025		0.00000000		 0.00025934		-0.00005527	
Mg		1.23100005		1.98909099		1.52700017		0.00000000		-0.00025934		 0.00005527	
