# total energy = -20634.0166287 eV

CRYSTAL
PRIMVEC
		10.10999973		0.00000000		0.00000000
		0.00000000		5.76999926		0.00000000
		0.00000000		0.00000000		4.69999733
PRIMECORD
   28 1
Si		8.51261977		2.88499963		4.11343941		 0.00022078		0.00000000		-0.00057156
Si		1.59737996		2.88499963		0.58655994		-0.00022078		0.00000000		 0.00057156
Si		3.26148591		0.00000000		4.14727960		-0.00030442		0.00000000		 0.00073553
Si		6.84851382		0.00000000		0.55271975		 0.00030442		0.00000000		-0.00073553
Mg		5.05499986		2.88499963		0.00000000		0.00000000		0.00000000		0.00000000
Mg		0.00000000		0.00000000		2.34999968		0.00000000		0.00000000		0.00000000
Mg		0.00000000		2.88499963		2.34999968		0.00000000		0.00000000		0.00000000
Mg		5.05499986		0.00000000		2.34999968		0.00000000		0.00000000		0.00000000
Mg		2.50930193		1.45807933		2.34529954		 0.00019361		 0.00011415		 0.00062581
Mg		7.60069780		4.31192095		2.35469982		-0.00019361		-0.00011415		-0.00062581
Mg		7.60069780		1.45807933		2.35469982		-0.00019361		 0.00011415		-0.00062581
Mg		2.50930193		4.31192095		2.34529954		 0.00019361		-0.00011415		 0.00062581
O		3.18869391		2.88499963		0.98935042		 0.00037340		-0.00000000		 0.00039523
O		6.92130581		2.88499963		3.71064995		-0.00037340		-0.00000000		-0.00039523
O		1.66006196		2.88499963		3.64579025		-0.00049600		-0.00000000		 0.00009550
O		8.44993777		2.88499963		1.05421011		 0.00049600		-0.00000000		-0.00009550
O		8.39635477		0.00000000		1.09698047		 0.00030542		0.00000000		-0.00012583
O		1.71364495		0.00000000		3.60301990		-0.00030542		0.00000000		 0.00012583
O		3.36662991		0.00000000		1.08522961		-0.00041679		-0.00000000		 0.00091297
O		6.74336982		0.00000000		3.61476974		 0.00041679		-0.00000000		-0.00091297
O		0.86036098		1.50077689		1.07489012		-0.00030681		-0.00049050		 0.00023538
O		9.24963875		4.26922339		3.62511025		 0.00030681		 0.00049050		-0.00023538
O		9.24963875		1.50077689		3.62511025		 0.00030681		-0.00049050		-0.00023538
O		0.86036098		4.26922339		1.07489012		-0.00030681		 0.00049050		 0.00023538
O		5.99725184		1.31613695		1.03870036		 0.00012206		 0.00009553		-0.00019264
O		4.11274789		4.45386332		3.66130001		-0.00012206		-0.00009553		 0.00019264
O		4.11274789		1.31613695		3.66130001		-0.00012206		 0.00009553		 0.00019264
O		5.99725184		4.45386332		1.03870036		 0.00012206		-0.00009553		-0.00019264
