# total energy = -11142.7024812 eV

CRYSTAL
PRIMVEC
		7.44099980		0.00000000		0.00000000
		0.00000000		4.40999782		0.70560025
		0.00000000		1.32672282		8.29199718
PRIMECORD
   12 1
Ca		0.14547229		2.00555779		5.82051598		 0.00020348		 0.00006286		-0.00013505
Ca		7.29552751		3.73116062		3.17708368		-0.00020348		-0.00006286		 0.00013505
Ca		3.57502761		3.54719827		2.02731602		-0.00020348		 0.00006286		-0.00013505
Ca		3.86597219		2.18952089		6.97028364		 0.00020348		-0.00006286		 0.00013505
Si		2.01346014		1.61408307		3.37379470		 0.00035285		-0.00085161		-0.00035473
Si		5.42753966		4.12263683		5.62380496		-0.00035285		 0.00085161		 0.00035473
Si		1.70703976		4.48244265		7.87259490		-0.00035285		-0.00085161		-0.00035473
Si		5.73396003		1.25427725		1.12500476		 0.00035285		 0.00085161		 0.00035473
Mg		1.07254571		1.18717134		0.70559504		 0.00023908		 0.00039934		-0.00044808
Mg		6.36845409		4.54954856		8.29200388		-0.00023908		-0.00039934		 0.00044808
Mg		2.64795419		4.05553091		5.20439450		-0.00023908		 0.00039934		-0.00044808
Mg		4.79304561		1.68118899		3.79320368		 0.00023908		-0.00039934		 0.00044808
