# total energy = -11144.4249328 eV

CRYSTAL
PRIMVEC
		7.44099980		0.00000000		0.00000000
		0.00000000		4.40999782		0.52919646
		0.00000000		0.99504026		8.29199718
PRIMECORD
   12 1
Ca		0.14547229		1.77979414		5.77641615		-0.00056535		 0.00028601		-0.00060414
Ca		7.29552751		3.62524617		3.04478420		 0.00056535		-0.00028601		 0.00060414
Ca		3.57502761		3.48727367		1.89501579		 0.00056535		 0.00028601		-0.00060414
Ca		3.86597219		1.91776590		6.92618381		-0.00056535		-0.00028601		 0.00060414
Si		2.01346014		1.48618717		3.32969487		 0.00016821		-0.00061737		 0.00086756
Si		5.42753966		3.91885165		5.49150473		-0.00016821		 0.00061737		-0.00086756
Si		1.70703976		4.18870695		7.74029467		-0.00016821		-0.00061737		 0.00086756
Si		5.73396003		1.21633261		1.08090493		 0.00016821		 0.00061737		-0.00086756
Mg		1.07254571		1.16600318		0.66149521		 0.00058032		 0.00054452		-0.00020834
Mg		6.36845409		4.23903564		8.15970364		-0.00058032		-0.00054452		 0.00020834
Mg		2.64795419		3.86852296		5.07209501		-0.00058032		 0.00054452		-0.00020834
Mg		4.79304561		1.53651586		3.74910385		 0.00058032		-0.00054452		 0.00020834
