# total energy = -44008.7921805 eV

CRYSTAL
PRIMVEC
		9.81799702		0.00000000		0.78543779
		0.00000000		18.04700547		0.00000000
		-0.92584052		0.00000000		4.99677115
PRIMECORD
   82 1
Si		2.47854796		1.51594763		1.70128121		 0.00017107		 0.00032209		-0.00003456
Si		6.41361051		16.53105292		4.08093266		-0.00017107		-0.00032209		 0.00003456
Si		6.41361051		1.51594763		4.08093266		-0.00017107		 0.00032209		 0.00003456
Si		2.47854796		16.53105292		1.70128121		 0.00017107		-0.00032209		-0.00003456
Si		7.38754746		10.53944741		2.09400109		 0.00018601		 0.00005177		 0.00009412
Si		1.50461200		7.50755313		3.68821278		-0.00018601		-0.00005177		-0.00009412
Si		1.50461200		10.53944741		3.68821278		-0.00018601		 0.00005177		-0.00009412
Si		7.38754746		7.50755313		2.09400109		 0.00018601		-0.00005177		 0.00009412
Si		2.08989587		3.08784164		4.24516199		-0.00037106		 0.00014288		 0.00008908
Si		6.80226358		14.95915891		1.53705187		 0.00037106		-0.00014288		-0.00008908
Si		6.80226358		3.08784164		1.53705187		 0.00037106		 0.00014288		-0.00008908
Si		2.08989587		14.95915891		4.24516199		-0.00037106		-0.00014288		 0.00008908
Si		6.99889537		12.11134241		4.63788187		-0.00013864		 0.00001717		 0.00020078
Si		1.89326409		5.93565814		1.14433199		 0.00013864		-0.00001717		-0.00020078
Si		1.89326409		12.11134241		1.14433199		 0.00013864		 0.00001717		-0.00020078
Si		6.99889537		5.93565814		4.63788187		-0.00013864		-0.00001717		 0.00020078
O		2.82870085		2.13856947		3.20997872		-0.00042442		 0.00005458		 0.00014437
O		6.06345861		15.90843108		2.57223514		 0.00042442		-0.00005458		-0.00014437
O		6.06345861		2.13856947		2.57223514		 0.00042442		 0.00005458		-0.00014437
O		2.82870085		15.90843108		3.20997872		-0.00042442		-0.00005458		 0.00014437
O		7.73770034		11.16206926		3.60269860		-0.00048939		 0.00008565		 0.00034043
O		1.15445911		6.88493129		2.17951526		 0.00048939		-0.00008565		-0.00034043
O		1.15445911		11.16206926		2.17951526		 0.00048939		 0.00008565		-0.00034043
O		7.73770034		6.88493129		3.60269860		-0.00048939		-0.00008565		 0.00034043
O		0.89567093		1.55204162		1.17253270		-0.00016720		 0.00012663		 0.00014808
O		7.99648853		16.49495794		4.60968116		 0.00016720		-0.00012663		-0.00014808
O		7.99648853		1.55204162		4.60968116		 0.00016720		 0.00012663		-0.00014808
O		0.89567093		16.49495794		1.17253270		-0.00016720		-0.00012663		 0.00014808
O		5.80467042		10.57554239		1.56525258		-0.00026735		 0.00015517		 0.00014203
O		3.08748903		7.47145816		4.21696128		 0.00026735		-0.00015517		-0.00014203
O		3.08748903		10.57554239		4.21696128		 0.00026735		 0.00015517		-0.00014203
O		5.80467042		7.47145816		1.56525258		-0.00026735		-0.00015517		 0.00014203
O		2.85302780		4.47565590		4.25093963		 0.00015608		-0.00023362		-0.00013550
O		6.03913165		13.57134366		1.53127423		-0.00015608		 0.00023362		 0.00013550
O		6.03913165		4.47565590		1.53127423		-0.00015608		-0.00023362		 0.00013550
O		2.85302780		13.57134366		4.25093963		 0.00015608		 0.00023362		-0.00013550
O		7.76202828		13.49915667		4.64365951		 0.00006832		-0.00021475		-0.00025043
O		1.13013216		4.54784388		1.13855435		-0.00006832		 0.00021475		 0.00025043
O		1.13013216		13.49915667		1.13855435		-0.00006832		-0.00021475		 0.00025043
O		7.76202828		4.54784388		4.64365951		 0.00006832		 0.00021475		-0.00025043
O		3.03822841		0.00000000		1.72425092		-0.00050772		0.00000000		 0.00016182
O		5.85393203		0.00000000		4.05796295		 0.00050772		0.00000000		-0.00016182
O		7.94722790		9.02349978		2.11697080		-0.00051433		0.00000000		 0.00008653
O		0.94493155		9.02349978		3.66524307		 0.00051433		0.00000000		-0.00008653
O		0.49312532		3.08964703		3.71073926		-0.00028362		 0.00047494		-0.00008975
O		8.39903512		14.95735352		2.07147460		 0.00028362		-0.00047494		 0.00008975
O		8.39903512		3.08964703		2.07147460		 0.00028362		 0.00047494		 0.00008975
O		0.49312532		14.95735352		3.71073926		-0.00028362		-0.00047494		-0.00008975
O		5.40212481		12.11314780		4.10345915		-0.00044837		 0.00048888		-0.00011267
O		3.49003464		5.93385374		1.67875472		 0.00044837		-0.00048888		 0.00011267
O		3.49003464		12.11314780		1.67875472		 0.00044837		 0.00048888		 0.00011267
O		5.40212481		5.93385374		4.10345915		-0.00044837		-0.00048888		-0.00011267
O		0.41389208		0.00000000		3.65977667		 0.00042870		0.00000000		-0.00014292
O		8.47826737		0.00000000		2.12243720		-0.00042870		0.00000000		 0.00014292
O		5.32289158		9.02349978		4.05249655		 0.00058436		-0.00000000		-0.00010212
O		3.56926788		9.02349978		1.72971731		-0.00058436		-0.00000000		 0.00010212
O		3.31009360		2.42371161		0.76783500		-0.00030059		-0.00028565		 0.00011233
O		5.58206586		15.62328894		5.01437886		 0.00030059		 0.00028565		-0.00011233
O		5.58206586		2.42371161		5.01437886		 0.00030059		-0.00028565		-0.00011233
O		3.31009360		15.62328894		0.76783500		-0.00030059		 0.00028565		 0.00011233
O		8.21909408		11.44721238		1.16055488		-0.00022200		-0.00007536		-0.00007719
O		0.67306636		6.59978817		4.62165898		 0.00022200		 0.00007536		 0.00007719
O		0.67306636		11.44721238		4.62165898		 0.00022200		-0.00007536		 0.00007719
O		8.21909408		6.59978817		1.16055488		-0.00022200		 0.00007536		-0.00007719
Ca		-0.46292026		5.00984717		2.49838656		0.00000000		-0.00013517		0.00000000
Ca		-0.46292026		13.03715338		2.49838656		0.00000000		 0.00013517		0.00000000
Ca		4.44608022		14.03334793		2.89110644		0.00000000		-0.00022177		0.00000000
Ca		4.44608022		4.01365261		2.89110644		0.00000000		 0.00022177		0.00000000
Mg		0.00000000		0.00000000		0.00000000		0.00000000		0.00000000		0.00000000
Mg		4.90899950		9.02349978		0.39271988		0.00000000		0.00000000		0.00000000
Mg		0.00000000		3.18709962		0.00000000		0.00000000		 0.00012750		0.00000000
Mg		0.00000000		14.85990093		0.00000000		0.00000000		-0.00012750		0.00000000
Mg		4.90899950		12.21059941		0.39271988		0.00000000		 0.00019000		0.00000000
Mg		4.90899950		5.83640016		0.39271988		0.00000000		-0.00019000		0.00000000
Mg		-0.46292026		1.58452681		2.49838656		0.00000000		-0.00067213		0.00000000
Mg		-0.46292026		16.46247374		2.49838656		0.00000000		 0.00067213		0.00000000
Mg		4.44608022		10.60802757		2.89110644		0.00000000		-0.00075955		0.00000000
Mg		4.44608022		7.43897396		2.89110644		0.00000000		 0.00075955		0.00000000
H		1.24088534		0.00000000		4.00381802		-0.00080310		-0.00000000		-0.00011786
H		7.65127510		0.00000000		1.77839584		 0.00080310		-0.00000000		 0.00011786
H		6.14988483		9.02349978		4.39653790		-0.00088886		-0.00000000		-0.00017293
H		2.74227462		9.02349978		1.38567596		 0.00088886		-0.00000000		 0.00017293
