# total energy = -44011.7131067 eV

CRYSTAL
PRIMVEC
		9.81800030		0.00000000		0.39271962
		0.00000000		18.04700325		0.00000000
		-1.12998271		0.00000000		5.05014359
PRIMECORD
   82 1
Si		2.41804076		1.51594804		1.60697963		 0.00034447		-0.00000115		 0.00007924
Si		6.26997781		16.53105325		3.83587866		-0.00034447		 0.00000115		-0.00007924
Si		6.26997781		1.51594804		3.83587866		-0.00034447		-0.00000115		-0.00007924
Si		2.41804076		16.53105325		1.60697963		 0.00034447		 0.00000115		 0.00007924
Si		7.32704091		10.53944770		1.80334043		 0.00045112		 0.00008680		 0.00010868
Si		1.36097864		7.50755260		3.63951885		-0.00045112		-0.00008680		-0.00010868
Si		1.36097864		10.53944770		3.63951885		-0.00045112		 0.00008680		-0.00010868
Si		7.32704091		7.50755260		1.80334043		 0.00045112		-0.00008680		 0.00010868
Si		1.92572730		3.08784152		4.17469955		-0.00028774		-0.00022599		-0.00015993
Si		6.76229324		14.95915878		1.26815874		 0.00028774		 0.00022599		 0.00015993
Si		6.76229324		3.08784152		1.26815874		 0.00028774		-0.00022599		 0.00015993
Si		1.92572730		14.95915878		4.17469955		-0.00028774		 0.00022599		-0.00015993
Si		6.83472548		12.11134315		4.37106034		-0.00006882		 0.00002202		-0.00012690
Si		1.85329309		5.93565814		1.07179893		 0.00006882		-0.00002202		 0.00012690
Si		1.85329309		12.11134315		1.07179893		 0.00006882		 0.00002202		 0.00012690
Si		6.83472548		5.93565814		4.37106034		-0.00006882		-0.00002202		-0.00012690
O		2.70858529		2.13856997		3.10643989		 0.00024280		 0.00049102		 0.00010404
O		5.97943525		15.90843131		2.33641840		-0.00024280		-0.00049102		-0.00010404
O		5.97943525		2.13856997		2.33641840		-0.00024280		 0.00049102		-0.00010404
O		2.70858529		15.90843131		3.10643989		 0.00024280		-0.00049102		 0.00010404
O		7.61758445		11.16206963		3.30279970		 0.00022144		 0.00043097		 0.00005723
O		1.07043510		6.88493067		2.14005859		-0.00022144		-0.00043097		-0.00005723
O		1.07043510		11.16206963		2.14005859		-0.00022144		 0.00043097		-0.00005723
O		7.61758445		6.88493067		3.30279970		 0.00022144		-0.00043097		 0.00005723
O		0.85135203		1.55204232		1.14025171		-0.00038431		-0.00027898		 0.00021230
O		7.83666752		16.49495798		4.30260659		 0.00038431		 0.00027898		-0.00021230
O		7.83666752		1.55204232		4.30260659		 0.00038431		-0.00027898		-0.00021230
O		0.85135203		16.49495798		1.14025171		-0.00038431		 0.00027898		 0.00021230
O		5.76035218		10.57554296		1.33661151		-0.00042831		-0.00028030		 0.00019393
O		2.92766836		7.47145832		4.10624678		 0.00042831		 0.00028030		-0.00019393
O		2.92766836		10.57554296		4.10624678		 0.00042831		-0.00028030		-0.00019393
O		5.76035218		7.47145832		1.33661151		-0.00042831		 0.00028030		 0.00019393
O		2.69108348		4.47565555		4.14977530		-0.00009385		 0.00015656		-0.00036608
O		5.99693607		13.57134377		1.29308398		 0.00009385		-0.00015656		 0.00036608
O		5.99693607		4.47565555		1.29308398		 0.00009385		 0.00015656		 0.00036608
O		2.69108348		13.57134377		4.14977530		-0.00009385		-0.00015656		-0.00036608
O		7.60008363		13.49915717		4.34613511		-0.00019958		-0.00002859		-0.00037898
O		1.08793593		4.54784411		1.09672417		 0.00019958		 0.00002859		 0.00037898
O		1.08793593		13.49915717		1.09672417		 0.00019958		-0.00002859		 0.00037898
O		7.60008363		4.54784411		4.34613511		-0.00019958		 0.00002859		-0.00037898
O		2.97859869		0.00000000		1.60749156		 0.00027687		-0.00000000		 0.00025657
O		5.70942086		0.00000000		3.83536673		-0.00027687		-0.00000000		-0.00025657
O		7.88759884		9.02349966		1.80385235		 0.00024800		0.00000000		 0.00025043
O		0.80042071		9.02349966		3.63900692		-0.00024800		0.00000000		-0.00025043
O		0.34532659		3.08964653		3.70283762		-0.00033534		 0.00013225		-0.00034692
O		8.34269198		14.95735377		1.74002068		 0.00033534		-0.00013225		 0.00034692
O		8.34269198		3.08964653		1.74002068		 0.00033534		 0.00013225		 0.00034692
O		0.34532659		14.95735377		3.70283762		-0.00033534		-0.00013225		-0.00034692
O		5.25432674		12.11314816		3.89919841		-0.00047257		 0.00011610		-0.00038735
O		3.43369183		5.93385411		1.54366087		 0.00047257		-0.00011610		 0.00038735
O		3.43369183		12.11314816		1.54366087		 0.00047257		 0.00011610		 0.00038735
O		5.25432674		5.93385411		3.89919841		-0.00047257		-0.00011610		-0.00038735
O		0.26789102		0.00000000		3.65490122		 0.00005580		0.00000000		 0.00000919
O		8.42012853		0.00000000		1.78795707		-0.00005580		0.00000000		-0.00000919
O		5.17689117		9.02349966		3.85126103		 0.00066796		0.00000000		 0.00017188
O		3.51112936		9.02349966		1.59159727		-0.00066796		0.00000000		-0.00017188
O		3.28984334		2.42371224		0.63705120		-0.00021221		-0.00010875		 0.00002347
O		5.39817720		15.62328904		4.80580808		 0.00021221		 0.00010875		-0.00002347
O		5.39817720		2.42371224		4.80580808		 0.00021221		-0.00010875		-0.00002347
O		3.28984334		15.62328904		0.63705120		-0.00021221		 0.00010875		 0.00002347
O		8.19884250		11.44721288		0.83341101		-0.00025595		-0.00017676		 0.00008912
O		0.48917705		6.59978840		4.60944827		 0.00025595		 0.00017676		-0.00008912
O		0.48917705		11.44721288		4.60944827		 0.00025595		-0.00017676		-0.00008912
O		8.19884250		6.59978840		0.83341101		-0.00025595		 0.00017676		 0.00008912
Ca		-0.56499037		5.00984679		2.52506885		0.00000000		-0.00022574		0.00000000
Ca		-0.56499037		13.03715351		2.52506885		0.00000000		 0.00022574		0.00000000
Ca		4.34400978		14.03334743		2.72142866		0.00000000		-0.00016542		0.00000000
Ca		4.34400978		4.01365287		2.72142866		0.00000000		 0.00016542		0.00000000
Mg		0.00000000		0.00000000		0.00000000		0.00000000		0.00000000		0.00000000
Mg		4.90900015		9.02349966		0.19635981		0.00000000		0.00000000		0.00000000
Mg		0.00000000		3.18710031		0.00000000		0.00000000		-0.00070631		0.00000000
Mg		0.00000000		14.85990098		0.00000000		0.00000000		 0.00070631		0.00000000
Mg		4.90900015		12.21059996		0.19635981		0.00000000		-0.00066733		0.00000000
Mg		4.90900015		5.83640034		0.19635981		0.00000000		 0.00066733		0.00000000
Mg		-0.56499037		1.58452658		2.52506885		0.00000000		-0.00067844		0.00000000
Mg		-0.56499037		16.46247372		2.52506885		0.00000000		 0.00067844		0.00000000
Mg		4.34400978		10.60802821		2.72142866		0.00000000		-0.00073816		0.00000000
Mg		4.34400978		7.43897406		2.72142866		0.00000000		 0.00073816		0.00000000
H		1.08369705		0.00000000		3.96675801		-0.00035138		-0.00000000		 0.00023641
H		7.60432152		0.00000000		1.47610126		 0.00035138		-0.00000000		-0.00023641
H		5.99269720		9.02349966		4.16311782		-0.00093416		-0.00000000		 0.00008006
H		2.69532333		9.02349966		1.27974145		 0.00093416		-0.00000000		-0.00008006
