# total energy = -43998.7200007 eV

CRYSTAL
PRIMVEC
		9.81800346		0.00000000		1.57088493
		0.00000000		18.04699613		0.00000000
		-0.51755653		0.00000000		4.89004564
PRIMECORD
   82 1
Si		2.59956295		1.51594756		1.88988421		 0.00007792		 0.00002314		 0.00004733
Si		6.70087702		16.53105256		4.57104039		-0.00007792		-0.00002314		-0.00004733
Si		6.70087702		1.51594756		4.57104039		-0.00007792		 0.00002314		-0.00004733
Si		2.59956295		16.53105256		1.88988421		 0.00007792		-0.00002314		 0.00004733
Si		7.50856270		10.53944761		2.67532369		 0.00021251		 0.00006297		 0.00002614
Si		1.79187827		7.50755250		3.78559992		-0.00021251		-0.00006297		-0.00002614
Si		1.79187827		10.53944761		3.78559992		-0.00021251		 0.00006297		-0.00002614
Si		7.50856270		7.50755250		2.67532369		 0.00021251		-0.00006297		 0.00002614
Si		2.41823472		3.08784169		4.38608699		-0.00017143		-0.00008428		 0.00032250
Si		6.88220525		14.95915842		2.07483761		 0.00017143		 0.00008428		-0.00032250
Si		6.88220525		3.08784169		2.07483761		 0.00017143		-0.00008428		-0.00032250
Si		2.41823472		14.95915842		4.38608699		-0.00017143		 0.00008428		 0.00032250
Si		7.32723447		12.11134274		5.17152647		-0.00007481		-0.00007331		 0.00032895
Si		1.97320452		5.93565837		1.28939813		 0.00007481		 0.00007331		-0.00032895
Si		1.97320452		12.11134274		1.28939813		 0.00007481		-0.00007331		-0.00032895
Si		7.32723447		5.93565837		5.17152647		-0.00007481		 0.00007331		 0.00032895
O		3.06893332		2.13857045		3.41705727		-0.00042135		-0.00002958		 0.00017703
O		6.23150666		15.90843065		3.04386832		 0.00042135		 0.00002958		-0.00017703
O		6.23150666		2.13857045		3.04386832		 0.00042135		-0.00002958		-0.00017703
O		3.06893332		15.90843065		3.41705727		-0.00042135		 0.00002958		 0.00017703
O		7.97793306		11.16206952		4.20249675		-0.00043391		-0.00002766		 0.00017655
O		1.32250791		6.88493060		2.25842785		 0.00043391		 0.00002766		-0.00017655
O		1.32250791		11.16206952		2.25842785		 0.00043391		-0.00002766		-0.00017655
O		7.97793306		6.88493060		4.20249675		-0.00043391		 0.00002766		 0.00017655
O		0.98430794		1.55204218		1.23709562		 0.00010213		 0.00035376		-0.00017164
O		8.31613204		16.49495793		5.22382799		-0.00010213		-0.00035376		 0.00017164
O		8.31613204		1.55204218		5.22382799		-0.00010213		 0.00035376		 0.00017164
O		0.98430794		16.49495793		1.23709562		 0.00010213		-0.00035376		-0.00017164
O		5.89330768		10.57554323		2.02253610		 0.00002644		 0.00027003		-0.00020096
O		3.40713229		7.47145787		4.43838751		-0.00002644		-0.00027003		 0.00020096
O		3.40713229		10.57554323		4.43838751		-0.00002644		 0.00027003		 0.00020096
O		5.89330768		7.47145787		2.02253610		 0.00002644		-0.00027003		-0.00020096
O		3.17691693		4.47565639		4.45327200		-0.00005150		 0.00013955		-0.00044487
O		6.12352404		13.57134372		2.00765260		 0.00005150		-0.00013955		 0.00044487
O		6.12352404		4.47565639		2.00765260		 0.00005150		 0.00013955		 0.00044487
O		3.17691693		13.57134372		4.45327200		-0.00005150		-0.00013955		-0.00044487
O		8.08591667		13.49915645		5.23871148		-0.00000267		 0.00010462		-0.00040563
O		1.21452330		4.54784366		1.22221312		 0.00000267		-0.00010462		 0.00040563
O		1.21452330		13.49915645		1.22221312		 0.00000267		 0.00010462		 0.00040563
O		8.08591667		4.54784366		5.23871148		-0.00000267		-0.00010462		-0.00040563
O		3.15748656		0.00000000		1.95776920		-0.00082225		-0.00000000		 0.00048239
O		6.14295242		0.00000000		4.50315640		 0.00082225		-0.00000000		-0.00048239
O		8.06648730		9.02350006		2.74320868		-0.00088025		-0.00000000		 0.00044442
O		1.23395268		9.02350006		3.71771592		 0.00088025		-0.00000000		-0.00044442
O		0.78871964		3.08964731		3.72654122		-0.00017368		-0.00020354		-0.00026605
O		8.51171935		14.95735379		2.73438338		 0.00017368		 0.00020354		 0.00026605
O		8.51171935		3.08964731		2.73438338		 0.00017368		-0.00020354		 0.00026605
O		0.78871964		14.95735379		3.72654122		-0.00017368		 0.00020354		-0.00026605
O		5.69772037		12.11314737		4.51198070		-0.00024546		-0.00029392		-0.00033103
O		3.60272060		5.93385374		1.94894290		 0.00024546		 0.00029392		 0.00033103
O		3.60272060		12.11314737		1.94894290		 0.00024546		-0.00029392		 0.00033103
O		5.69772037		5.93385374		4.51198070		-0.00024546		 0.00029392		-0.00033103
O		0.70589349		0.00000000		3.66952778		-0.00042414		0.00000000		-0.00015559
O		8.59454549		0.00000000		2.79139583		 0.00042414		0.00000000		 0.00015559
O		5.61489423		9.02350006		4.45496825		-0.00027065		-0.00000000		-0.00008983
O		3.68554575		9.02350006		2.00595635		 0.00027065		-0.00000000		 0.00008983
O		3.35059511		2.42371225		1.02940187		-0.00025615		-0.00046116		 0.00012605
O		5.94984486		15.62328885		5.43152174		 0.00025615		 0.00046116		-0.00012605
O		5.94984486		2.42371225		5.43152174		 0.00025615		-0.00046116		-0.00012605
O		3.35059511		15.62328885		1.02940187		-0.00025615		 0.00046116		 0.00012605
O		8.25959485		11.44721231		1.81484234		-0.00030725		-0.00041790		 0.00017571
O		1.04084512		6.59978780		4.64608226		 0.00030725		 0.00041790		-0.00017571
O		1.04084512		11.44721231		4.64608226		 0.00030725		-0.00041790		-0.00017571
O		8.25959485		6.59978780		1.81484234		-0.00030725		 0.00041790		 0.00017571
Ca		-0.25878025		5.00984735		2.44502182		0.00000000		 0.00039256		0.00000000
Ca		-0.25878025		13.03715375		2.44502182		0.00000000		-0.00039256		0.00000000
Ca		4.65021949		14.03334741		3.23046230		0.00000000		 0.00043706		0.00000000
Ca		4.65021949		4.01365270		3.23046230		0.00000000		-0.00043706		0.00000000
Mg		0.00000000		0.00000000		0.00000000		0.00000000		0.00000000		0.00000000
Mg		4.90899974		9.02350006		0.78544048		0.00000000		0.00000000		0.00000000
Mg		0.00000000		3.18710042		0.00000000		0.00000000		 0.00059312		0.00000000
Mg		0.00000000		14.85990068		0.00000000		0.00000000		-0.00059312		0.00000000
Mg		4.90899974		12.21059949		0.78544048		0.00000000		-0.00004780		0.00000000
Mg		4.90899974		5.83639963		0.78544048		0.00000000		 0.00004780		0.00000000
Mg		-0.25878025		1.58452655		2.44502182		0.00000000		-0.00063180		0.00000000
Mg		-0.25878025		16.46247356		2.44502182		0.00000000		 0.00063180		0.00000000
Mg		4.65021949		10.60802760		3.23046230		0.00000000		-0.00055332		0.00000000
Mg		4.65021949		7.43897350		3.23046230		0.00000000		 0.00055332		0.00000000
H		1.55526069		0.00000000		4.07793936		 0.00034430		0.00000000		 0.00011654
H		7.74517928		0.00000000		2.38298524		-0.00034430		0.00000000		-0.00011654
H		6.46426044		9.02350006		4.86337884		 0.00017229		0.00000000		 0.00007920
H		2.83617855		9.02350006		1.59754476		-0.00017229		0.00000000		-0.00007920
