# total energy = -49433.6969213 eV

CRYSTAL
PRIMVEC
		18.23299940		0.00000000		0.00000000
		0.00000000		9.03957467		0.00000000
		0.00000000		0.00000000		5.18019569
PRIMECORD
   80 1
Mg		6.86107767		5.91278849		4.48760609		 0.00011750		 0.00092889		-0.00006152
Mg		11.37192172		3.12678983		0.69259325		-0.00011750		-0.00092889		 0.00006152
Mg		2.25542203		3.12678983		1.89750642		-0.00011750		-0.00092889		-0.00006152
Mg		15.97757737		5.91278849		3.28269291		 0.00011750		 0.00092889		 0.00006152
Mg		11.37192172		1.39299933		3.28269291		-0.00011750		 0.00092889		 0.00006152
Mg		6.86107767		7.64657899		1.89750642		 0.00011750		-0.00092889		-0.00006152
Mg		15.97757737		7.64657899		0.69259325		 0.00011750		-0.00092889		 0.00006152
Mg		2.25542203		1.39299933		4.48760609		-0.00011750		 0.00092889		-0.00006152
Mg		6.87201747		4.40408255		1.85917337		-0.00008830		 0.00017789		-0.00023196
Mg		11.36098192		4.63549395		3.32102597		 0.00008830		-0.00017789		 0.00023196
Mg		2.24448223		4.63549395		4.44927304		 0.00008830		-0.00017789		-0.00023196
Mg		15.98851717		4.40408255		0.73092630		-0.00008830		 0.00017789		 0.00023196
Mg		11.36098192		8.92386988		0.73092630		 0.00008830		 0.00017789		 0.00023196
Mg		6.87201747		0.11570661		4.44927304		-0.00008830		-0.00017789		-0.00023196
Mg		15.98851717		0.11570661		3.32102597		-0.00008830		-0.00017789		 0.00023196
Mg		2.24448223		8.92386988		1.85917337		 0.00008830		 0.00017789		-0.00023196
Si		4.95025934		3.08972761		0.26211760		 0.00014081		-0.00050237		 0.00044311
Si		13.28274006		5.94985071		4.91808174		-0.00014081		 0.00050237		-0.00044311
Si		4.16624036		5.94985071		2.85221727		-0.00014081		 0.00050237		 0.00044311
Si		14.06675903		3.08972761		2.32798207		 0.00014081		-0.00050237		-0.00044311
Si		13.28274006		7.60951495		2.32798207		-0.00014081		-0.00050237		-0.00044311
Si		4.95025934		1.43006155		2.85221727		 0.00014081		 0.00050237		 0.00044311
Si		14.06675903		1.43006155		4.91808174		 0.00014081		 0.00050237		-0.00044311
Si		4.16624036		7.60951495		0.26211760		-0.00014081		-0.00050237		 0.00044311
Si		8.63514851		3.04995232		4.13431803		-0.00012095		-0.00011937		 0.00033890
Si		9.59785088		5.98962417		1.04588131		 0.00012095		 0.00011937		-0.00033890
Si		0.48135118		5.98962417		1.54421836		 0.00012095		 0.00011937		 0.00033890
Si		17.75164821		3.04995232		3.63598098		-0.00012095		-0.00011937		-0.00033890
Si		9.59785088		7.56974148		3.63598098		 0.00012095		-0.00011937		-0.00033890
Si		8.63514851		1.46983501		1.54421836		-0.00012095		 0.00011937		 0.00033890
Si		17.75164821		1.46983501		1.04588131		-0.00012095		 0.00011937		-0.00033890
Si		0.48135118		7.56974148		4.13431803		 0.00012095		-0.00011937		 0.00033890
O		3.34575539		3.07978333		0.17612713		-0.00025628		 0.00054023		 0.00005587
O		14.88724401		5.95979316		5.00407221		 0.00025628		-0.00054023		-0.00005587
O		5.77074431		5.95979316		2.76622680		 0.00025628		-0.00054023		 0.00005587
O		12.46225509		3.07978333		2.41397254		-0.00025628		 0.00054023		-0.00005587
O		14.88724401		7.59957249		2.41397254		 0.00025628		 0.00054023		-0.00005587
O		3.34575539		1.44000583		2.76622680		-0.00025628		-0.00054023		 0.00005587
O		12.46225509		1.44000583		5.00407221		-0.00025628		-0.00054023		-0.00005587
O		5.77074431		7.59957249		0.17612713		 0.00025628		 0.00054023		 0.00005587
O		5.67775601		4.54600457		0.22274891		-0.00004634		-0.00046756		 0.00015310
O		12.55524338		4.49357375		4.95745225		 0.00004634		 0.00046756		-0.00015310
O		3.43874369		4.49357375		2.81284858		 0.00004634		 0.00046756		 0.00015310
O		14.79425571		4.54600457		2.36735076		-0.00004634		-0.00046756		-0.00015310
O		12.55524338		0.02621541		2.36735076		 0.00004634		-0.00046756		-0.00015310
O		5.67775601		9.01336291		2.81284858		-0.00004634		 0.00046756		 0.00015310
O		14.79425571		9.01336291		4.95745225		-0.00004634		 0.00046756		-0.00015310
O		3.43874369		0.02621541		0.22274891		 0.00004634		-0.00046756		 0.00015310
O		5.51548232		2.01040151		4.30992734		 0.00013469		-0.00028080		 0.00046466
O		12.71751708		7.02917499		0.87027382		-0.00013469		 0.00028080		-0.00046466
O		3.60101738		7.02917499		1.71982767		-0.00013469		 0.00028080		 0.00046466
O		14.63198202		2.01040151		3.46037349		 0.00013469		-0.00028080		-0.00046466
O		12.71751708		6.53019067		3.46037349		-0.00013469		-0.00028080		-0.00046466
O		5.51548232		2.50938765		1.71982767		 0.00013469		 0.00028080		 0.00046466
O		14.63198202		2.50938765		0.87027382		 0.00013469		 0.00028080		-0.00046466
O		3.60101738		6.53019067		4.30992734		-0.00013469		-0.00028080		 0.00046466
O		10.25059226		3.08611201		4.13380021		 0.00028328		 0.00035573		-0.00017242
O		7.98240714		5.95346631		1.04640095		-0.00028328		-0.00035573		 0.00017242
O		17.09890683		5.95346631		1.54370054		-0.00028328		-0.00035573		-0.00017242
O		1.13409256		3.08611201		3.63650062		 0.00028328		 0.00035573		 0.00017242
O		7.98240714		7.60590117		3.63650062		-0.00028328		 0.00035573		 0.00017242
O		10.25059226		1.43367715		1.54370054		 0.00028328		-0.00035573		-0.00017242
O		1.13409256		1.43367715		1.04640095		 0.00028328		-0.00035573		 0.00017242
O		17.09890683		7.60590117		4.13380021		-0.00028328		 0.00035573		-0.00017242
O		7.88394894		4.37154029		3.57433703		 0.00007800		-0.00058273		-0.00027987
O		10.34905046		4.66803803		1.60586231		-0.00007800		 0.00058273		 0.00027987
O		1.23255076		4.66803803		0.98423736		-0.00007800		 0.00058273		-0.00027987
O		17.00044864		4.37154029		4.19596197		 0.00007800		-0.00058273		 0.00027987
O		10.34905046		8.89132945		4.19596197		-0.00007800		-0.00058273		 0.00027987
O		7.88394894		0.14824887		0.98423736		 0.00007800		 0.00058273		-0.00027987
O		17.00044864		0.14824887		1.60586231		 0.00007800		 0.00058273		 0.00027987
O		1.23255076		8.89132945		3.57433703		-0.00007800		-0.00058273		-0.00027987
O		8.17385363		1.76362151		3.12366105		 0.00001110		 0.00005012		 0.00002909
O		10.05914577		7.27595499		2.05654011		-0.00001110		-0.00005012		-0.00002909
O		0.94264607		7.27595499		0.53356138		-0.00001110		-0.00005012		 0.00002909
O		17.29035333		1.76362151		4.64663978		 0.00001110		 0.00005012		-0.00002909
O		10.05914577		6.28341067		4.64663978		-0.00001110		 0.00005012		-0.00002909
O		8.17385363		2.75616765		0.53356138		 0.00001110		-0.00005012		 0.00002909
O		17.29035333		2.75616765		2.05654011		 0.00001110		-0.00005012		-0.00002909
O		0.94264607		6.28341067		3.12366105		-0.00001110		 0.00005012		 0.00002909
