# total energy = -49431.300605 eV

CRYSTAL
PRIMVEC
		18.23299940		0.00000000		0.00000000
		0.00000000		9.70101319		0.00000000
		0.00000000		0.00000000		5.18019569
PRIMECORD
   80 1
Mg		6.86107767		6.34543022		4.48760609		-0.00032657		-0.00019666		-0.00039331
Mg		11.37192172		3.35557933		0.69259325		 0.00032657		 0.00019666		 0.00039331
Mg		2.25542203		3.35557933		1.89750642		 0.00032657		 0.00019666		-0.00039331
Mg		15.97757737		6.34543022		3.28269291		-0.00032657		-0.00019666		 0.00039331
Mg		11.37192172		1.49492544		3.28269291		 0.00032657		-0.00019666		 0.00039331
Mg		6.86107767		8.20608410		1.89750642		-0.00032657		 0.00019666		-0.00039331
Mg		15.97757737		8.20608410		0.69259325		-0.00032657		 0.00019666		 0.00039331
Mg		2.25542203		1.49492544		4.48760609		 0.00032657		-0.00019666		-0.00039331
Mg		6.87201747		4.72633258		1.85917337		-0.00027834		-0.00021789		-0.00009488
Mg		11.36098192		4.97467697		3.32102597		 0.00027834		 0.00021789		 0.00009488
Mg		2.24448223		4.97467697		4.44927304		 0.00027834		 0.00021789		-0.00009488
Mg		15.98851717		4.72633258		0.73092630		-0.00027834		-0.00021789		 0.00009488
Mg		11.36098192		9.57683735		0.73092630		 0.00027834		-0.00021789		 0.00009488
Mg		6.87201747		0.12417220		4.44927304		-0.00027834		 0.00021789		-0.00009488
Mg		15.98851717		0.12417220		3.32102597		-0.00027834		 0.00021789		 0.00009488
Mg		2.24448223		9.57683735		1.85917337		 0.00027834		-0.00021789		-0.00009488
Si		4.95025934		3.31580404		0.26211760		 0.00038748		-0.00022844		 0.00019397
Si		13.28274006		6.38520551		4.91808174		-0.00038748		 0.00022844		-0.00019397
Si		4.16624036		6.38520551		2.85221727		-0.00038748		 0.00022844		 0.00019397
Si		14.06675903		3.31580404		2.32798207		 0.00038748		-0.00022844		-0.00019397
Si		13.28274006		8.16631064		2.32798207		-0.00038748		-0.00022844		-0.00019397
Si		4.95025934		1.53470073		2.85221727		 0.00038748		 0.00022844		 0.00019397
Si		14.06675903		1.53470073		4.91808174		 0.00038748		 0.00022844		-0.00019397
Si		4.16624036		8.16631064		0.26211760		-0.00038748		-0.00022844		 0.00019397
Si		8.63514851		3.27312059		4.13431803		-0.00014472		-0.00020262		-0.00023774
Si		9.59785088		6.42788896		1.04588131		 0.00014472		 0.00020262		 0.00023774
Si		0.48135118		6.42788896		1.54421836		 0.00014472		 0.00020262		-0.00023774
Si		17.75164821		3.27312059		3.63598098		-0.00014472		-0.00020262		 0.00023774
Si		9.59785088		8.12362536		3.63598098		 0.00014472		-0.00020262		 0.00023774
Si		8.63514851		1.57738418		1.54421836		-0.00014472		 0.00020262		-0.00023774
Si		17.75164821		1.57738418		1.04588131		-0.00014472		 0.00020262		 0.00023774
Si		0.48135118		8.12362536		4.13431803		 0.00014472		-0.00020262		-0.00023774
O		3.34575539		3.30513409		0.17612713		 0.00083473		-0.00013253		 0.00000999
O		14.88724401		6.39587546		5.00407221		-0.00083473		 0.00013253		-0.00000999
O		5.77074431		6.39587546		2.76622680		-0.00083473		 0.00013253		 0.00000999
O		12.46225509		3.30513409		2.41397254		 0.00083473		-0.00013253		-0.00000999
O		14.88724401		8.15563886		2.41397254		-0.00083473		-0.00013253		-0.00000999
O		3.34575539		1.54537068		2.76622680		 0.00083473		 0.00013253		 0.00000999
O		12.46225509		1.54537068		5.00407221		 0.00083473		 0.00013253		-0.00000999
O		5.77074431		8.15563886		0.17612713		-0.00083473		-0.00013253		 0.00000999
O		5.67775601		4.87863829		0.22274891		-0.00017299		-0.00010512		-0.00038402
O		12.55524338		4.82237126		4.95745225		 0.00017299		 0.00010512		 0.00038402
O		3.43874369		4.82237126		2.81284858		 0.00017299		 0.00010512		-0.00038402
O		14.79425571		4.87863829		2.36735076		-0.00017299		-0.00010512		 0.00038402
O		12.55524338		0.02813352		2.36735076		 0.00017299		-0.00010512		 0.00038402
O		5.67775601		9.67287603		2.81284858		-0.00017299		 0.00010512		-0.00038402
O		14.79425571		9.67287603		4.95745225		-0.00017299		 0.00010512		 0.00038402
O		3.43874369		0.02813352		0.22274891		 0.00017299		-0.00010512		-0.00038402
O		5.51548232		2.15750535		4.30992734		-0.00025105		-0.00054607		 0.00053525
O		12.71751708		7.54350602		0.87027382		 0.00025105		 0.00054607		-0.00053525
O		3.60101738		7.54350602		1.71982767		 0.00025105		 0.00054607		 0.00053525
O		14.63198202		2.15750535		3.46037349		-0.00025105		-0.00054607		-0.00053525
O		12.71751708		7.00801012		3.46037349		 0.00025105		-0.00054607		-0.00053525
O		5.51548232		2.69299942		1.71982767		-0.00025105		 0.00054607		 0.00053525
O		14.63198202		2.69299942		0.87027382		-0.00025105		 0.00054607		-0.00053525
O		3.60101738		7.00801012		4.30992734		 0.00025105		-0.00054607		 0.00053525
O		10.25059226		3.31192406		4.13380021		-0.00036834		-0.00035312		 0.00060456
O		7.98240714		6.38908549		1.04640095		 0.00036834		 0.00035312		-0.00060456
O		17.09890683		6.38908549		1.54370054		 0.00036834		 0.00035312		 0.00060456
O		1.13409256		3.31192406		3.63650062		-0.00036834		-0.00035312		-0.00060456
O		7.98240714		8.16242883		3.63650062		 0.00036834		-0.00035312		-0.00060456
O		10.25059226		1.53858071		1.54370054		-0.00036834		 0.00035312		 0.00060456
O		1.13409256		1.53858071		1.04640095		-0.00036834		 0.00035312		-0.00060456
O		17.09890683		8.16242883		4.13380021		 0.00036834		-0.00035312		 0.00060456
O		7.88394894		4.69140909		3.57433703		 0.00015814		 0.00018210		 0.00008685
O		10.34905046		5.00960228		1.60586231		-0.00015814		-0.00018210		-0.00008685
O		1.23255076		5.00960228		0.98423736		-0.00015814		-0.00018210		 0.00008685
O		17.00044864		4.69140909		4.19596197		 0.00015814		 0.00018210		-0.00008685
O		10.34905046		9.54191386		4.19596197		-0.00015814		 0.00018210		-0.00008685
O		7.88394894		0.15909751		0.98423736		 0.00015814		-0.00018210		 0.00008685
O		17.00044864		0.15909751		1.60586231		 0.00015814		-0.00018210		-0.00008685
O		1.23255076		9.54191386		3.57433703		-0.00015814		 0.00018210		 0.00008685
O		8.17385363		1.89266739		3.12366105		 0.00010467		 0.00024980		-0.00036504
O		10.05914577		7.80834216		2.05654011		-0.00010467		-0.00024980		 0.00036504
O		0.94264607		7.80834216		0.53356138		-0.00010467		-0.00024980		-0.00036504
O		17.29035333		1.89266739		4.64663978		 0.00010467		 0.00024980		 0.00036504
O		10.05914577		6.74317216		4.64663978		-0.00010467		 0.00024980		 0.00036504
O		8.17385363		2.95783739		0.53356138		 0.00010467		-0.00024980		-0.00036504
O		17.29035333		2.95783739		2.05654011		 0.00010467		-0.00024980		 0.00036504
O		0.94264607		6.74317216		3.12366105		-0.00010467		 0.00024980		-0.00036504
