# total energy = -2069.16125457 eV

CRYSTAL
PRIMVEC
		2.93801997		0.00000000		0.23504101
		-1.46900851		2.54439960		-0.11752198
		0.21437379		0.00000000		2.67967971
PRIMECORD
   2 1
Mg		0.00000000		0.00000000		0.00000000		0.00000000		-0.00023901		0.00000000
O		0.10718689		1.69626689		1.33983985		0.00000000		 0.00023901		0.00000000
