# total energy = -2069.15872581 eV

CRYSTAL
PRIMVEC
		2.93802111		0.00000000		0.11752073
		-1.46900908		2.54439960		-0.05876036
		0.10718826		0.00000000		2.67968016
PRIMECORD
   2 1
Mg		0.00000000		0.00000000		0.00000000		0.00000000		 0.00006572		0.00000000
O		0.05359413		1.69626708		1.33984008		0.00000000		-0.00006572		0.00000000
