# total energy = -41273.1935967 eV	

CRYSTAL	
PRIMVEC	
		5.69780014		0.00000000		0.00000000	
		0.00000000		12.32165234		0.00000000	
		0.00000000		0.00000000		8.25709812	
PRIMCOORD
   56 1	
Mg		0.00000000		0.00000000		0.00000000		0.00000000		0.00000000		0.00000000	
Mg		0.00000000		6.16082503		0.00000000		0.00000000		0.00000000		0.00000000	
Mg		2.84890007		6.16082503		4.12855020		0.00000000		0.00000000		0.00000000	
Mg		2.84890007		0.00000000		4.12855020		0.00000000		0.00000000		0.00000000	
Mg		0.00000000		3.08041195		8.00773618		0.00000000		-0.00000000		 0.00073294	
Mg		0.00000000		9.24123698		0.24936422		0.00000000		0.00000000		-0.00073294	
Mg		2.84890007		9.24123698		3.87918598		0.00000000		-0.00000000		 0.00073295	
Mg		2.84890007		3.08041195		4.37791499		0.00000000		0.00000000		-0.00073295	
Mg		1.42445004		1.56361709		2.06427482		0.00000000		 0.00008374		-0.00000000	
Mg		4.27335011		10.75803240		6.19282502		-0.00000000		-0.00008374		0.00000000	
Mg		4.27335011		4.59720737		2.06427482		-0.00000000		-0.00008375		0.00000000	
Mg		1.42445004		7.72444327		6.19282502		0.00000000		 0.00008375		-0.00000000	
Mg		4.27335011		7.72444327		6.19282502		-0.00000000		 0.00008375		-0.00000000	
Mg		1.42445004		4.59720737		2.06427482		0.00000000		-0.00008375		0.00000000	
Mg		1.42445004		10.75803240		6.19282502		0.00000000		-0.00008374		0.00000000	
Mg		4.27335011		1.56361709		2.06427482		-0.00000000		 0.00008374		-0.00000000	
Si		0.00000000		1.47736607		5.09050239		0.00000000		-0.00017445		-0.00045204	
Si		0.00000000		10.84428399		3.16659801		0.00000000		 0.00017445		 0.00045204	
Si		0.00000000		4.68345896		5.09050239		0.00000000		 0.00017445		-0.00045207	
Si		0.00000000		7.63819111		3.16659801		0.00000000		-0.00017445		 0.00045207	
Si		2.84890007		7.63819111		0.96195219		0.00000000		-0.00017446		-0.00045204	
Si		2.84890007		4.68345896		7.29514821		0.00000000		 0.00017446		 0.00045204	
Si		2.84890007		10.84428399		0.96195219		0.00000000		 0.00017445		-0.00045205	
Si		2.84890007		1.47736607		7.29514821		0.00000000		-0.00017445		 0.00045205	
O		0.00000000		3.08041195		1.80169910		0.00000000		 0.00000001		-0.00008512	
O		0.00000000		9.24123698		6.45540130		0.00000000		-0.00000001		 0.00008512	
O		2.84890007		9.24123698		5.93024930		0.00000000		-0.00000000		-0.00008513	
O		2.84890007		3.08041195		2.32685110		0.00000000		0.00000000		 0.00008513	
O		0.00000000		3.08041195		5.90960617		0.00000000		 0.00000001		-0.00035600	
O		0.00000000		9.24123698		2.34749423		0.00000000		-0.00000001		 0.00035600	
O		2.84890007		9.24123698		1.78105597		0.00000000		 0.00000001		-0.00035608	
O		2.84890007		3.08041195		6.47604443		0.00000000		-0.00000001		 0.00035608	
O		0.00000000		12.19596913		2.11794581		0.00000000		-0.00007631		-0.00056079	
O		0.00000000		0.12568094		6.13915402		0.00000000		 0.00007631		 0.00056079	
O		0.00000000		6.28650597		2.11794581		0.00000000		 0.00007632		-0.00056082	
O		0.00000000		6.03514410		6.13915402		0.00000000		-0.00007632		 0.00056082	
O		2.84890007		6.03514410		6.24649601		0.00000000		-0.00007631		-0.00056078	
O		2.84890007		6.28650597		2.01060382		0.00000000		 0.00007631		 0.00056078	
O		2.84890007		0.12568094		6.24649601		0.00000000		 0.00007632		-0.00056079	
O		2.84890007		12.19596913		2.01060382		0.00000000		-0.00007632		 0.00056079	
O		1.48199782		1.51063382		8.20012639		-0.00036513		-0.00016466		-0.00003536	
O		4.21580232		10.81101510		0.05697401		 0.00036513		 0.00016466		 0.00003536	
O		4.21580232		4.65019121		8.20012639		 0.00036514		 0.00016466		-0.00003536	
O		1.48199782		7.67145942		0.05697401		-0.00036514		-0.00016466		 0.00003536	
O		4.21580232		7.67145942		0.05697401		 0.00036514		-0.00016466		 0.00003536	
O		1.48199782		4.65019121		8.20012639		-0.00036514		 0.00016466		-0.00003536	
O		1.48199782		10.81101510		0.05697401		-0.00036513		 0.00016466		 0.00003536	
O		4.21580232		1.51063382		8.20012639		 0.00036513		-0.00016466		-0.00003536	
O		4.33089789		7.67145942		4.07157619		-0.00036515		-0.00016466		-0.00003536	
O		1.36690225		4.65019121		4.18552421		 0.00036515		 0.00016466		 0.00003536	
O		1.36690225		10.81101510		4.07157619		 0.00036516		 0.00016465		-0.00003534	
O		4.33089789		1.51063382		4.18552421		-0.00036516		-0.00016465		 0.00003534	
O		1.36690225		1.51063382		4.18552421		 0.00036516		-0.00016465		 0.00003534	
O		4.33089789		10.81101510		4.07157619		-0.00036516		 0.00016465		-0.00003534	
O		4.33089789		4.65019121		4.18552421		-0.00036515		 0.00016466		 0.00003536	
O		1.36690225		7.67145942		4.07157619		 0.00036515		-0.00016466		-0.00003536	
