# total energy = -10316.8570256 eV

CRYSTAL
PRIMVEC
		4.97999984		0.00000000		0.00000000
		0.00000000		8.84999756		0.35399831
		0.00000000		0.10999824		2.75000073
PRIMECORD
   14 1
Si		0.00000000		0.00000000		0.00000000		0.00000000		0.00000000		0.00000000
Si		2.48999992		4.42499978		0.17700015		0.00000000		0.00000000		0.00000000
Mg		0.40786199		3.00116503		1.49284708		 0.00043043		-0.00022152		-0.00010070
Mg		4.57213786		5.95883475		1.61115296		-0.00043043		 0.00022152		 0.00010070
Mg		2.08213793		7.42616481		1.66984674		-0.00043043		-0.00022152		-0.00010070
Mg		2.89786191		1.53383497		1.43415281		 0.00043043		 0.00022152		 0.00010070
O		1.07767197		0.45147981		1.39085918		-0.00001377		 0.00042345		-0.00016538
O		3.90232788		8.50852097		1.71314086		 0.00001377		-0.00042345		 0.00016538
O		1.41232796		4.87648009		1.56785883		 0.00001377		 0.00042345		-0.00016538
O		3.56767189		4.08351969		1.53614071		-0.00001377		-0.00042345		 0.00016538
O		1.95464994		2.73199505		0.10928012		-0.00022365		-0.00045423		 0.00000789
O		3.02534991		6.11800600		0.24472018		 0.00022365		 0.00045423		-0.00000789
O		0.53534998		7.15699482		0.28627977		 0.00022365		-0.00045423		 0.00000789
O		4.44464986		1.69300473		0.06772003		-0.00022365		 0.00045423		-0.00000789
