# total energy = -10316.8570255 eV

CRYSTAL
PRIMVEC
		4.97999984		0.00000000		0.00000000
		0.00000000		8.84999756		-0.35399831
		0.00000000		-0.10999824		2.75000073
PRIMECORD
   14 1
Si		0.00000000		0.00000000		0.00000000		-0.00000000		0.00000000		0.00000000
Si		2.48999992		4.42499978		-0.17700015		-0.00000000		0.00000000		0.00000000
Mg		0.40786199		2.89116481		1.25715315		 0.00043045		-0.00022150		 0.00010069
Mg		4.57213786		5.84883502		1.13884678		-0.00043045		 0.00022150		-0.00010069
Mg		2.08213793		7.31616458		1.08015300		-0.00043045		-0.00022150		 0.00010069
Mg		2.89786191		1.42383474		1.31584693		 0.00043045		 0.00022150		-0.00010069
O		1.07767197		0.34148008		1.35914106		-0.00001374		 0.00042351		 0.00016545
O		3.90232788		8.39852074		1.03685888		 0.00001374		-0.00042351		-0.00016545
O		1.41232796		4.76647986		1.18214091		 0.00001374		 0.00042351		 0.00016545
O		3.56767189		3.97351996		1.21385903		-0.00001374		-0.00042351		-0.00016545
O		1.95464994		2.73199505		-0.10928012		-0.00022363		-0.00045425		-0.00000791
O		3.02534991		6.11800600		-0.24472018		 0.00022363		 0.00045425		 0.00000791
O		0.53534998		7.15699482		-0.28627977		 0.00022363		-0.00045425		-0.00000791
O		4.44464986		1.69300473		-0.06772003		-0.00022363		 0.00045425		 0.00000791
