# total energy = -9075.69509568 eV	

CRYSTAL	
PRIMVEC	
		4.98527309		0.00000000		0.00000000	
		0.00000000		5.18979891		0.00000000	
		-0.00374394		0.00000000		7.33030069	
PRIMCOORD
   28 1	
Mg		3.78288305		2.66755682		1.83990527		 0.00042510		 0.00030730		 0.00064857	
Mg		1.19864810		0.07265687		5.49039393		-0.00042510		 0.00030730		-0.00064857	
Si		1.24538304		0.06746720		1.83257492		 0.00016541		-0.00021088		-0.00018638	
Si		3.73614811		2.66236715		5.49772427		-0.00016541		-0.00021088		 0.00018638	
O		1.80784996		5.07043402		3.53320413		-0.00022240		 0.00032377		 0.00077623	
O		3.17368019		2.47553407		3.79709507		 0.00022240		 0.00032377		-0.00077623	
O		4.29862999		2.85438990		7.16903209		 0.00003530		-0.00014525		 0.00020943	
O		0.68290016		0.25948995		0.16126710		-0.00003530		-0.00014525		-0.00020943	
O		4.51904886		4.16740913		5.07989707		 0.00056836		-0.00002168		 0.00004797	
O		0.46248179		1.57250918		2.25040213		-0.00056836		-0.00002168		-0.00004797	
O		2.24037126		3.43045815		5.87890025		-0.00036483		-0.00064155		 0.00043308	
O		2.74115889		0.83555819		1.45139895		 0.00036483		-0.00064155		-0.00043308	
O		4.72484093		4.35424221		2.34569612		 0.00039805		 0.00002930		-0.00047024	
O		0.25669022		1.75934226		4.98460307		-0.00039805		 0.00002930		 0.00047024	
O		1.94856827		3.65880908		1.31945422		-0.00004223		-0.00037016		 0.00020692	
O		3.03296188		1.06390913		6.01084497		 0.00004223		-0.00037016		-0.00020692	
H		2.27644021		4.16740913		3.58451605		-0.00021447		-0.00024134		 0.00022095	
H		2.70509094		1.57250918		3.74578315		 0.00021447		-0.00024134		-0.00022095	
H		4.79713188		3.62767007		7.22034401		-0.00044417		 0.00025594		-0.00032983	
H		0.18439877		1.03277011		0.10995419		 0.00044417		 0.00025594		 0.00032983	
H		1.52259712		2.83363122		5.67365107		-0.00017194		-0.00026915		-0.00012663	
H		3.45893303		0.23873077		1.65664813		 0.00017194		-0.00026915		 0.00012663	
H		3.86085123		4.93549913		5.35844920		-0.00043204		 0.00016871		-0.00001498	
H		1.12067992		2.34060018		1.97184999		 0.00043204		 0.00016871		 0.00001498	
H		4.65956526		4.42170891		3.26198284		-0.00003648		 0.00056944		-0.00082806	
H		0.32196589		1.82680995		4.06831586		 0.00003648		 0.00056944		 0.00082806	
H		2.05373410		3.59653105		0.38850582		 0.00029403		 0.00024554		 0.00017226	
H		2.92779705		1.00163110		6.94179337		-0.00029403		 0.00024554		-0.00017226	
