# total energy = -9075.72626145 eV	

CRYSTAL	
PRIMVEC	
		5.24092813		0.00000000		0.00000000	
		0.00000000		5.18979763		0.00000000	
		-0.00393594		0.00000000		7.33029750	
PRIMCOORD
   28 1	
Mg		3.97687706		2.66755695		1.83990486		 0.00025054		-0.00047281		 0.00061157	
Mg		1.26011723		0.07265708		5.49039421		-0.00025054		-0.00047281		-0.00061157	
Si		1.30924779		0.06746699		1.83257490		 0.00038837		 0.00000829		-0.00020474	
Si		3.92774493		2.66236686		5.49772417		-0.00038837		 0.00000829		 0.00020474	
O		1.90056127		5.07043392		3.53320419		-0.00017032		 0.00022845		-0.00004869	
O		3.33643302		2.47553406		3.79709488		 0.00017032		 0.00022845		 0.00004869	
O		4.51907308		2.85439027		7.16903204		-0.00060054		 0.00040819		 0.00001316	
O		0.71792120		0.25948988		0.16126703		 0.00060054		 0.00040819		-0.00001316	
O		4.75079495		4.16740890		5.07989694		-0.00036960		-0.00022470		-0.00056102	
O		0.48619881		1.57250904		2.25040213		 0.00036960		-0.00022470		 0.00056102	
O		2.35526209		3.43045789		5.87890002		-0.00008183		-0.00041028		 0.00043361	
O		2.88173114		0.83555803		1.45139905		 0.00008183		-0.00041028		-0.00043361	
O		4.96714099		4.35424222		2.34569583		-0.00093483		-0.00043595		 0.00065302	
O		0.26985277		1.75934184		4.98460324		 0.00093483		-0.00043595		-0.00065302	
O		2.04849485		3.65880932		1.31945397		 0.00055095		 0.00083666		-0.00023488	
O		3.18849891		1.06390893		6.01084510		-0.00055095		 0.00083666		 0.00023488	
H		2.39318021		4.16740890		3.58451602		-0.00054942		 0.00030615		-0.00011163	
H		2.84381303		1.57250904		3.74578305		 0.00054942		 0.00030615		 0.00011163	
H		5.04313812		3.62767035		7.22034440		 0.00010703		-0.00006505		 0.00000427	
H		0.19385512		1.03276996		0.10995415		-0.00010703		-0.00006505		-0.00000427	
H		1.60067903		2.83363095		5.67365112		-0.00062220		-0.00030054		 0.00054407	
H		3.63631526		0.23873109		1.65664795		 0.00062220		-0.00030054		-0.00054407	
H		4.05884308		4.93549889		5.35844913		-0.00039982		-0.00035906		-0.00009859	
H		1.17815121		2.34060007		1.97184994		 0.00039982		-0.00035906		 0.00009859	
H		4.89851733		4.42170922		3.26198301		-0.00005970		 0.00080791		-0.00004872	
H		0.33847696		1.82680988		4.06831605		 0.00005970		 0.00080791		 0.00004872	
H		2.15905380		3.59653085		0.38850581		 0.00016905		-0.00032725		 0.00020875	
H		3.07793996		1.00163098		6.94179326		-0.00016905		-0.00032725		-0.00020875	
