# total energy = -9075.47172241 eV	

CRYSTAL	
PRIMVEC	
		4.85744505		0.00000000		0.00000000	
		0.00000000		5.18980116		0.00000000	
		-0.00364794		0.00000000		7.33029746	
PRIMCOORD
   28 1	
Mg		3.68588614		2.66755727		1.83990498		 0.00004819		-0.00039321		-0.00055015	
Mg		1.16791292		0.07265718		5.49039394		-0.00004819		-0.00039321		 0.00055015	
Si		1.21345001		0.06746700		1.83257509		 0.00037431		 0.00014876		-0.00023043	
Si		3.64034905		2.66236709		5.49772383		-0.00037431		 0.00014876		 0.00023043	
O		1.76149513		5.07043382		3.53320401		-0.00003410		 0.00002115		-0.00042277	
O		3.09230392		2.47553421		3.79709491		 0.00003410		 0.00002115		 0.00042277	
O		4.18840923		2.85439015		7.16903223		-0.00001834		-0.00032851		 0.00040765	
O		0.66538982		0.25949006		0.16126718		 0.00001834		-0.00032851		-0.00040765	
O		4.40317582		4.16740904		5.07989709		-0.00055094		-0.00038850		 0.00002823	
O		0.45062323		1.57250894		2.25040183		 0.00055094		-0.00038850		-0.00002823	
O		2.18292609		3.43045787		5.87890017		-0.00045462		 0.00049218		-0.00004350	
O		2.67087296		0.83555778		1.45139924		 0.00045462		 0.00049218		 0.00004350	
O		4.60369115		4.35424192		2.34569616		 0.00007966		-0.00028072		-0.00045124	
O		0.25010790		1.75934182		4.98460325		-0.00007966		-0.00028072		 0.00045124	
O		1.89860526		3.65880928		1.31945403		-0.00002911		-0.00091419		 0.00048842	
O		2.95519379		1.06390919		6.01084489		 0.00002911		-0.00091419		-0.00048842	
H		2.21806922		4.16740904		3.58451612		-0.00036390		 0.00000300		 0.00046147	
H		2.63572886		1.57250894		3.74578281		 0.00036390		 0.00000300		-0.00046147	
H		4.67412799		3.62767014		7.22034385		-0.00025685		 0.00063157		 0.00006459	
H		0.17967106		1.03277005		0.10995410		 0.00025685		 0.00063157		-0.00006459	
H		1.48355601		2.83363089		5.67365126		 0.00007482		 0.00000329		-0.00007033	
H		3.37024304		0.23873079		1.65664815		-0.00007482		 0.00000329		 0.00007033	
H		3.76185512		4.93549885		5.35844922		-0.00010180		 0.00046708		 0.00001250	
H		1.09194393		2.34060021		1.97185019		 0.00010180		 0.00046708		-0.00001250	
H		4.54008922		4.42170891		3.26198322		-0.00005240		 0.00026447		-0.00009121	
H		0.31370983		1.82680979		4.06831619		 0.00005240		 0.00026447		 0.00009121	
H		2.00107403		3.59653101		0.38850623		 0.00036548		 0.00027362		 0.00016382	
H		2.85272502		1.00163091		6.94179318		-0.00036548		 0.00027362		-0.00016382	
