# total energy = -7658.52174374 eV

CRYSTAL
PRIMVEC
		5.54070013		0.00000000		0.00000000
		-2.77035006		4.79838483		0.00000000
		0.00000000		0.00000000		4.35915137
PRIMECORD
   15 1
Mg		0.00000000		0.00000000		0.00000000		0.00000000		0.00000000		0.00000000
Mg		0.00000000		3.19892488		0.04751483		0.00000000		0.00000000		-0.00005036
Mg		2.77035006		1.59946216		4.31163488		0.00000000		-0.00000000		 0.00005036
O		0.91310683		1.60554031		0.95901319		 0.00002554		 0.00004566		 0.00035296
O		1.85724213		3.19284729		3.40013707		-0.00002554		-0.00004566		-0.00035296
O		0.92335823		4.78639088		0.95901319		-0.00005231		-0.00000071		 0.00035296
O		1.84699183		0.01199617		3.40013707		 0.00005231		 0.00000071		-0.00035296
O		-1.83646506		3.20484235		0.95901319		 0.00002677		-0.00004495		 0.00035296
O		4.60681512		1.59354414		3.40013707		-0.00002677		 0.00004495		-0.00035296
H		0.78594776		1.67607730		1.83956120		 0.00026208		-0.00012489		-0.00031132
H		1.98440231		3.12231030		2.51958906		-0.00026208		 0.00012489		 0.00031132
H		0.92585099		4.64100013		1.83956120		-0.00002288		 0.00028941		-0.00031132
H		1.84449907		0.15738691		2.51958906		 0.00002288		-0.00028941		 0.00031132
H		-1.71179931		3.27969721		1.83956120		-0.00023920		-0.00016452		-0.00031132
H		4.48214937		1.51868928		2.51958906		 0.00023920		 0.00016452		 0.00031132
