# total energy = -7658.25179636 eV

CRYSTAL
PRIMVEC
		5.54070013		0.00000000		0.00000000
		-2.77035006		4.79838483		0.00000000
		0.00000000		0.00000000		5.32784859
PRIMECORD
   15 1
Mg		0.00000000		0.00000000		0.00000000		0.00000000		0.00000000		0.00000000
Mg		0.00000000		3.19892488		0.05807374		0.00000000		-0.00000000		-0.00074389
Mg		2.77035006		1.59946216		5.26977596		-0.00000000		-0.00000000		 0.00074389
O		0.91310683		1.60554031		1.17212680		 0.00084266		-0.00039081		 0.00008322
O		1.85724213		3.19284729		4.15572290		-0.00084266		 0.00039081		-0.00008322
O		0.92335823		4.78639088		1.17212680		-0.00008287		 0.00092516		 0.00008322
O		1.84699183		0.01199617		4.15572290		 0.00008287		-0.00092516		-0.00008322
O		-1.83646506		3.20484235		1.17212680		-0.00075977		-0.00053436		 0.00008322
O		4.60681512		1.59354414		4.15572290		 0.00075977		 0.00053436		-0.00008322
H		0.78594776		1.67607730		2.24835295		 0.00051789		-0.00016505		 0.00038184
H		1.98440231		3.12231030		3.07949731		-0.00051789		 0.00016505		-0.00038184
H		0.92585099		4.64100013		2.24835295		-0.00011601		 0.00053103		 0.00038184
H		1.84449907		0.15738691		3.07949731		 0.00011601		-0.00053103		-0.00038184
H		-1.71179931		3.27969721		2.24835295		-0.00040188		-0.00036598		 0.00038184
H		4.48214937		1.51868928		3.07949731		 0.00040188		 0.00036598		-0.00038184
