# total energy = -7658.39436564 eV

CRYSTAL
PRIMVEC
		5.54070013		0.00000000		0.00000000
		-2.77035006		4.79838483		0.00000000
		0.00000000		0.00000000		5.08567567
PRIMECORD
   15 1
Mg		0.00000000		0.00000000		0.00000000		-0.00000000		0.00000000		0.00000000
Mg		0.00000000		3.19892488		0.05543415		0.00000000		-0.00000000		 0.00012056
Mg		2.77035006		1.59946216		5.03024097		0.00000000		-0.00000000		-0.00012056
O		0.91310683		1.60554031		1.11884909		 0.00077769		-0.00034838		-0.00012784
O		1.85724213		3.19284729		3.96682603		-0.00077769		 0.00034838		 0.00012784
O		0.92335823		4.78639088		1.11884909		-0.00008714		 0.00084769		-0.00012784
O		1.84699183		0.01199617		3.96682603		 0.00008714		-0.00084769		 0.00012784
O		-1.83646506		3.20484235		1.11884909		-0.00069055		-0.00049931		-0.00012784
O		4.60681512		1.59354414		3.96682603		 0.00069055		 0.00049931		 0.00012784
H		0.78594776		1.67607730		2.14615529		 0.00033013		-0.00005181		-0.00013263
H		1.98440231		3.12231030		2.93951983		-0.00033013		 0.00005181		 0.00013263
H		0.92585099		4.64100013		2.14615529		-0.00012020		 0.00031180		-0.00013263
H		1.84449907		0.15738691		2.93951983		 0.00012020		-0.00031180		 0.00013263
H		-1.71179931		3.27969721		2.14615529		-0.00020993		-0.00025999		-0.00013263
H		4.48214937		1.51868928		2.93951983		 0.00020993		 0.00025999		 0.00013263
