# total energy = -7658.46489271 eV

CRYSTAL
PRIMVEC
		5.54070013		0.00000000		0.00000000
		-2.77035006		4.79838483		0.00000000
		0.00000000		0.00000000		4.96458921
PRIMECORD
   15 1
Mg		0.00000000		0.00000000		0.00000000		0.00000000		0.00000000		0.00000000
Mg		0.00000000		3.19892488		0.05411380		0.00000000		0.00000000		 0.00068354
Mg		2.77035006		1.59946216		4.91047430		-0.00000000		0.00000000		-0.00068354
O		0.91310683		1.60554031		1.09220885		 0.00066898		-0.00028452		-0.00014892
O		1.85724213		3.19284729		3.87237814		-0.00066898		 0.00028452		 0.00014892
O		0.92335823		4.78639088		1.09220885		-0.00008810		 0.00072161		-0.00014892
O		1.84699183		0.01199617		3.87237814		 0.00008810		-0.00072161		 0.00014892
O		-1.83646506		3.20484235		1.09220885		-0.00058088		-0.00043709		-0.00014892
O		4.60681512		1.59354414		3.87237814		 0.00058088		 0.00043709		 0.00014892
H		0.78594776		1.67607730		2.09505618		 0.00022900		 0.00002822		-0.00016797
H		1.98440231		3.12231030		2.86953192		-0.00022900		-0.00002822		 0.00016797
H		0.92585099		4.64100013		2.09505618		-0.00013894		 0.00018421		-0.00016797
H		1.84449907		0.15738691		2.86953192		 0.00013894		-0.00018421		 0.00016797
H		-1.71179931		3.27969721		2.09505618		-0.00009005		-0.00021243		-0.00016797
H		4.48214937		1.51868928		2.86953192		 0.00009005		 0.00021243		 0.00016797
