# total energy = -9074.85407991 eV	

CRYSTAL	
PRIMVEC	
		5.11310008		0.00000000		0.00000000	
		0.00000000		5.18980170		-0.41518373	
		-0.00383994		-0.58642656		7.33029878	
PRIMCOORD
   28 1	
Mg		3.87988016		2.52036514		1.62650014		 0.00034068		 0.00018931		-0.00008760	
Mg		1.22938202		-0.36657400		5.48458112		-0.00035682		 0.00014249		-0.00031053	
Si		1.27731580		-0.07913903		1.82717705		-0.00014771		-0.00015465		 0.00015581	
Si		3.83194690		2.22254905		5.28473509		 0.00057192		-0.00065768		-0.00020955	
O		1.85420490		4.78777807		3.12756930		 0.00026302		 0.00039372		 0.00068308	
O		3.25505627		2.17176727		3.59905184		-0.00013564		 0.00022562		-0.00051709	
O		4.40885184		2.28086702		6.94068107		-0.00031136		 0.00060817		-0.00023788	
O		0.70040983		0.24658897		0.14050697		-0.00030796		-0.00026629		-0.00072352	
O		4.63492194		3.76101695		4.74650512		 0.00051031		 0.00057195		-0.00037296	
O		0.47434025		1.39247713		2.12460097		-0.00082868		 0.00040395		-0.00005354	
O		2.29781695		2.96014595		5.60446286		-0.00007495		-0.00057221		 0.00007774	
O		2.81144524		0.71944591		1.38455490		 0.00038563		 0.00025816		 0.00002095	
O		4.84599122		4.16658600		1.99735585		-0.00080820		-0.00016306		 0.00036767	
O		0.26327097		1.36057395		4.84385599		 0.00093492		-0.00048382		-0.00003473	
O		1.99853084		3.55325226		1.02674884		 0.00001877		-0.00010332		-0.00015264	
O		3.11073084		0.58304118		5.92573224		-0.00032748		 0.00064290		 0.00054661	
H		2.33481023		3.88064815		3.25112327		 0.00044577		-0.00002635		-0.00034491	
H		2.77445196		1.27284695		3.61998231		-0.00024529		-0.00038039		 0.00016407	
H		4.92013526		3.05004192		6.93013121		 0.00026299		-0.00056835		-0.00028149	
H		0.18912692		1.02397397		0.02733310		-0.00003661		-0.00039880		 0.00015720	
H		1.56163791		2.37973904		5.44696097		-0.00006072		-0.00026400		 0.00040419	
H		3.54762427		0.10619909		1.63754904		 0.00002596		 0.00006887		-0.00034536	
H		3.95984700		4.50682395		4.96360889		-0.00029576		 0.00043522		 0.00062184	
H		1.14941518		2.18285196		1.78460180		 0.00008895		 0.00021247		-0.00041095	
H		4.77904131		4.16075093		2.90824594		 0.00050260		 0.00003839		-0.00018895	
H		0.33022088		1.50134424		3.92217113		-0.00015739		-0.00028183		 0.00037024	
H		2.10639424		3.56545110		0.10078278		 0.00001169		 0.00008589		 0.00009208	
H		3.00286794		0.44628825		6.86166322		-0.00026864		 0.00004363		 0.00061018	
