# total energy = -9073.74674745 eV	

CRYSTAL	
PRIMVEC	
		5.11310008		0.00000000		0.00000000	
		0.00000000		5.18980170		0.62277559	
		-0.00383994		0.87963729		7.33029878	
PRIMCOORD
   28 1	
Mg		3.87988016		2.88834626		2.16001226		 0.00006014		-0.00000499		 0.00007355	
Mg		1.22938202		0.73150413		5.49911306		 0.00026512		 0.00015913		 0.00076226	
Si		1.27731580		0.28737617		1.84067103		 0.00028748		 0.00021327		-0.00006829	
Si		3.83194690		3.32209412		5.81720822		 0.00056642		 0.00029110		-0.00009664	
O		1.85420490		5.49441923		4.14165606		 0.00017794		 0.00036818		-0.00054739	
O		3.25505627		2.93118586		4.09415894		-0.00006112		 0.00022872		 0.00037094	
O		4.40885184		3.71467386		7.51155920		 0.00028606		-0.00015181		-0.00048845	
O		0.70040983		0.27884189		0.19240493		 0.00009269		-0.00074264		-0.00018905	
O		4.63492194		4.77699709		5.57998594		 0.00037772		 0.00040400		-0.00006987	
O		0.47434025		1.84255726		2.43910315		 0.00059732		-0.00061885		 0.00017780	
O		2.29781695		4.13592632		6.29055499		-0.00075722		 0.00000721		-0.00041146	
O		2.81144524		1.00972580		1.55166583		 0.00015399		 0.00075826		-0.00002602	
O		4.84599122		4.63572521		2.86820525		-0.00043022		-0.00010009		 0.00025757	
O		0.26327097		2.35749399		5.19572420		 0.00088079		 0.00031217		-0.00002856	
O		1.99853084		3.81714294		1.75851119		-0.00004283		-0.00040337		 0.00051727	
O		3.11073084		1.78521026		6.13851390		 0.00036196		 0.00076527		-0.00029638	
H		2.33481023		4.59755131		4.08460511		 0.00016291		 0.00055417		 0.00020096	
H		2.77445196		2.02200304		3.93448398		 0.00016128		-0.00021085		-0.00050990	
H		4.92013526		4.49411125		7.65566528		 0.00008380		-0.00057022		 0.00057208	
H		0.18912692		1.04596490		0.23388700		 0.00012756		-0.00058586		-0.00048665	
H		1.56163791		3.51446889		6.01368727		-0.00060395		-0.00031592		-0.00033028	
H		3.54762427		0.43752900		1.68529517		-0.00058262		-0.00009155		 0.00037725	
H		3.95984700		5.57851286		5.95070820		-0.00027992		-0.00000142		-0.00004139	
H		1.14941518		2.57722179		2.25272196		-0.00036902		-0.00039961		 0.00020840	
H		4.77904131		4.81314722		3.79258830		-0.00017067		 0.00004827		 0.00031264	
H		0.33022088		2.31500719		4.28753332		-0.00028822		 0.00009536		 0.00009875	
H		2.10639424		3.64315181		0.82009012		-0.00032768		 0.00001453		-0.00019934	
H		3.00286794		1.83464678		7.06198937		-0.00072970		-0.00002248		-0.00013980	
