# total energy = -9075.54124796 eV	

CRYSTAL	
PRIMVEC	
		5.11310008		0.00000000		0.00000000	
		0.00000000		5.18980170		-0.20759186	
		-0.00383994		-0.29321072		7.33029878	
PRIMCOORD
   28 1	
Mg		3.87988016		2.59396106		1.73320287		 0.00011336		-0.00039454		-0.00071451	
Mg		1.22938202		-0.14695919		5.48748792		-0.00005106		-0.00015120		 0.00006161	
Si		1.27731580		-0.00583609		1.82987626		 0.00027855		-0.00001732		 0.00002273	
Si		3.83194690		2.44245786		5.39122921		-0.00015089		 0.00004550		 0.00002353	
O		1.85420490		4.92910620		3.33038706		 0.00002882		 0.00005167		-0.00019821	
O		3.25505627		2.32365089		3.69807315		-0.00004718		-0.00015455		 0.00017480	
O		4.40885184		2.56762911		7.05485710		-0.00028520		 0.00028829		 0.00000205	
O		0.70040983		0.25303914		0.15088707		 0.00001787		-0.00044650		 0.00008487	
O		4.63492194		3.96421308		4.91320088		-0.00076015		-0.00002555		-0.00048383	
O		0.47434025		1.48249326		2.18750079		-0.00009276		-0.00015736		-0.00064962	
O		2.29781695		3.19530202		5.74168108		 0.00001954		-0.00017029		-0.00010519	
O		2.81144524		0.77750209		1.41797719		-0.00044855		-0.00014878		 0.00028593	
O		4.84599122		4.26041395		2.17152593		-0.00023735		 0.00032540		 0.00043996	
O		0.26327097		1.55995826		4.91423014		 0.00016170		-0.00036455		 0.00020045	
O		1.99853084		3.60603122		1.17310111		 0.00021529		 0.00022743		-0.00008806	
O		3.11073084		0.82347499		5.96828908		 0.00019681		 0.00041552		 0.00008096	
H		2.33481023		4.02402817		3.41782005		 0.00011685		 0.00012922		 0.00025867	
H		2.77445196		1.42267817		3.68288316		 0.00016755		-0.00007921		-0.00017214	
H		4.92013526		3.33885589		7.07523792		-0.00000806		 0.00000186		-0.00008772	
H		0.18912692		1.02837225		0.06864388		 0.00001393		 0.00010835		-0.00004166	
H		1.56163791		2.60668501		5.56030613		 0.00021820		 0.00001848		-0.00006097	
H		3.54762427		0.17246487		1.64709827		 0.00008414		 0.00024879		-0.00034174	
H		3.95984700		4.72116204		5.16102926		 0.00021664		 0.00023341		 0.00037868	
H		1.14941518		2.26172613		1.87822624		-0.00013421		 0.00029036		 0.00000552	
H		4.77904131		4.29123009		3.08511523		 0.00029160		-0.00013846		 0.00003280	
H		0.33022088		1.66407683		3.99524397		 0.00016668		-0.00013329		 0.00037169	
H		2.10639424		3.58099083		0.24464497		 0.00017918		-0.00002900		 0.00024097	
H		3.00286794		0.72396026		6.90172794		-0.00027131		 0.00002631		 0.00027843	
