# total energy = -18389.3433785 eV	

CRYSTAL	
PRIMVEC	
		11.82319318		0.00000000		0.00007777	
		0.00000000		6.65228137		0.00000000	
		0.00003333		0.00000000		5.03013953	
PRIMCOORD
   28 1	
Mg		0.00000000		0.00000000		0.00000000		 0.00000013		 0.00000009		 0.00000005	
Mg		5.91161325		0.00000000		2.51510865		-0.00000011		-0.00000008		-0.00000004	
Mg		0.00000000		3.32614069		0.00000000		 0.00000011		-0.00000009		 0.00000002	
Mg		5.91161214		3.32614180		2.51510865		-0.00000009		 0.00000009		-0.00000001	
Ca		3.33190334		1.66307034		4.97804346		 0.00024399		 0.00000076		-0.00010086	
Ca		8.49132205		4.98921103		0.05217384		-0.00024404		-0.00000077		 0.00010092	
Ca		2.58017097		4.98921103		2.46302813		-0.00024538		-0.00000071		-0.00009835	
Ca		9.24305331		1.66307034		2.56718806		 0.00024546		 0.00000072		 0.00009838	
Si		0.97493824		1.66307034		2.03345551		 0.00022901		-0.00000060		-0.00007219	
Si		10.84828604		4.98921103		2.99675957		-0.00022846		 0.00000064		 0.00007217	
Si		4.93730605		4.98921103		4.54860526		-0.00022526		 0.00000066		-0.00007292	
Si		6.88591824		1.66307034		0.48161204		 0.00022464		-0.00000061		 0.00007302	
O		0.92114015		1.66307034		3.68056551		-0.00017308		-0.00001414		 0.00036310	
O		10.90208413		4.98921214		1.34964956		 0.00017140		 0.00001426		-0.00036297	
O		4.99078196		4.98921103		1.16557241		 0.00015499		 0.00001436		 0.00035933	
O		6.83244344		1.66307034		3.86464378		-0.00015341		-0.00001439		-0.00035957	
O		5.38233795		1.66307034		1.25903248		 0.00024120		-0.00001448		 0.00036804	
O		6.44088633		4.98921103		3.77118371		-0.00024203		 0.00001451		-0.00036701	
O		0.52870870		4.98921103		3.77412225		-0.00021729		 0.00001455		 0.00036492	
O		11.29451558		1.66307034		1.25609283		 0.00021801		-0.00001445		-0.00036387	
O		1.72391983		0.32521716		1.36009833		 0.00037275		 0.00006101		 0.00031003	
O		10.09930446		6.32706421		3.67011897		-0.00037239		-0.00006228		-0.00031075	
O		4.18849889		6.32706421		3.87511588		-0.00046828		-0.00005953		 0.00031537	
O		7.63472540		0.32521716		1.15510031		 0.00046837		 0.00006115		-0.00031577	
O		10.09930557		3.65135785		3.67011897		-0.00037217		 0.00006232		-0.00031100	
O		1.72391983		3.00092352		1.36009722		 0.00037203		-0.00006133		 0.00031048	
O		7.63472540		3.00092352		1.15510031		 0.00046832		-0.00006074		-0.00031591	
O		4.18849889		3.65135785		3.87511588		-0.00046843		 0.00005904		 0.00031540	
