# total energy = -18391.0722238 eV	

CRYSTAL	
PRIMVEC	
		11.26310374		0.00000000		-0.00003333	
		0.00000000		6.44311718		0.00000000	
		-0.00001111		0.00000000		4.88006836	
PRIMCOORD
   28 1	
Mg		0.00000000		0.00000000		0.00000000		 0.00000079		-0.00000020		-0.00000022	
Mg		5.63154520		0.00000000		2.44001751		-0.00000112		 0.00000016		-0.00000019	
Mg		0.00000000		3.22155637		0.00000000		 0.00000086		 0.00000018		-0.00000021	
Mg		5.63154409		3.22155637		2.44001640		-0.00000111		-0.00000015		-0.00000017	
Ca		3.12303577		1.61077874		4.78395082		 0.00006289		-0.00000036		-0.00001651	
Ca		8.14005241		4.83233399		0.09608310		-0.00006321		 0.00000022		 0.00001644	
Ca		2.50854942		4.83233510		2.34391219		-0.00006340		 0.00000025		-0.00001580	
Ca		8.75453876		1.61077874		2.53612173		 0.00006378		-0.00000027		 0.00001568	
Si		0.91887819		1.61077874		1.99914067		 0.00017935		-0.00000015		 0.00004694	
Si		10.34420999		4.83233510		2.88089214		-0.00017742		 0.00000002		-0.00004699	
Si		4.71267590		4.83233399		4.43917485		-0.00017671		 0.00000004		 0.00004669	
Si		6.55041340		1.61077763		0.44085907		 0.00017472		-0.00000009		-0.00004686	
O		0.87894846		1.61077763		3.63296891		 0.00029413		 0.00000019		-0.00021868	
O		10.38413972		4.83233399		1.24706501		-0.00029655		-0.00000021		 0.00021889	
O		4.75258007		4.83233399		1.19293362		-0.00028600		-0.00000022		-0.00021745	
O		6.51050922		1.61077763		3.68710030		 0.00028891		 0.00000020		 0.00021805	
O		5.06261459		1.61077763		1.20820626		 0.00016800		 0.00000011		-0.00029658	
O		6.20047360		4.83233399		3.67182766		-0.00016833		-0.00000030		 0.00029742	
O		0.56895950		4.83233399		3.64823933		-0.00016944		-0.00000015		-0.00029620	
O		10.69412868		1.61077763		1.23179459		 0.00017057		 0.00000032		 0.00029769	
O		1.65990072		0.28966247		1.32553019		 0.00011238		 0.00009064		 0.00008637	
O		9.60318747		6.15345026		3.55450373		-0.00011347		-0.00009113		-0.00008680	
O		3.97172892		6.15347803		3.76555548		-0.00011249		-0.00009274		 0.00008642	
O		7.29136037		0.28963470		1.11447844		 0.00011287		 0.00009388		-0.00008693	
O		9.60318747		3.51121884		3.55450373		-0.00011265		 0.00009188		-0.00008691	
O		1.65990072		2.93189389		1.32553019		 0.00011222		-0.00009069		 0.00008642	
O		7.29136037		2.93192167		1.11447844		 0.00011237		-0.00009436		-0.00008715	
O		3.97172892		3.51119106		3.76555548		-0.00011194		 0.00009296		 0.00008664	
