# total energy = -18391.0823972 eV	

CRYSTAL	
PRIMVEC	
		11.01564406		0.00000000		0.00001111	
		0.00000000		6.34686187		0.00000000	
		0.00000000		0.00000000		4.82007544	
PRIMCOORD
   28 1	
Mg		0.00000000		0.00000000		0.00000000		-0.00000060		 0.00000010		 0.00000007	
Mg		5.50782203		0.00000000		2.41004328		 0.00000052		 0.00000004		 0.00000009	
Mg		0.00000000		3.17343316		0.00000000		-0.00000055		-0.00000016		 0.00000015	
Mg		5.50782203		3.17343205		2.41004328		 0.00000061		-0.00000001		 0.00000004	
Ca		3.04009334		1.58671602		4.71195154		 0.00000525		-0.00000027		-0.00040405	
Ca		7.97555072		4.76014918		0.10813612		-0.00000517		 0.00000020		 0.00040393	
Ca		2.46773091		4.76014918		2.30190937		-0.00000475		 0.00000022		-0.00040254	
Ca		8.54791315		1.58671713		2.51817718		 0.00000459		-0.00000030		 0.00040244	
Si		0.89671303		1.58671602		1.98272594		-0.00035829		-0.00000002		-0.00033539	
Si		10.11893103		4.76014918		2.83735950		 0.00035773		 0.00000003		 0.00033539	
Si		4.61111789		4.76014918		4.39276588		 0.00035824		0.00000000		-0.00033509	
Si		6.40452618		1.58671602		0.42732067		-0.00035759		-0.00000001		 0.00033503	
O		0.85525459		1.58671602		3.60733527		-0.00019475		 0.00000006		-0.00000621	
O		10.16038947		4.76014918		1.21275017		 0.00019598		-0.00000010		 0.00000610	
O		4.65256077		4.76014918		1.19729755		 0.00019576		-0.00000037		-0.00000462	
O		6.36308329		1.58671602		3.62278900		-0.00019698		 0.00000033		 0.00000445	
O		4.92568186		1.58671602		1.19370020		-0.00031301		 0.00000029		 0.00021377	
O		6.08996331		4.76014807		3.62638746		 0.00031265		-0.00000025		-0.00021389	
O		0.58212461		4.76014918		3.60373681		 0.00031481		-0.00000003		 0.00021342	
O		10.43351945		1.58671602		1.21634974		-0.00031455		 0.00000019		-0.00021335	
O		1.63397378		0.27482311		1.30899659		-0.00013961		-0.00004828		-0.00003204	
O		9.38166917		6.07204320		3.51108996		 0.00014013		 0.00004846		 0.00003213	
O		3.87385159		6.07203987		3.71903764		 0.00014101		 0.00004823		-0.00003257	
O		7.14179359		0.27482533		1.10105002		-0.00014155		-0.00004851		 0.00003265	
O		9.38167028		3.44825627		3.51108996		 0.00013992		-0.00004841		 0.00003210	
O		1.63397378		2.89861004		1.30899659		-0.00013949		 0.00004829		-0.00003205	
O		7.14179359		2.89860671		1.10105002		-0.00014234		 0.00004807		 0.00003238	
O		3.87385047		3.44825849		3.71903764		 0.00014202		-0.00004775		-0.00003233	
