# total energy = -20638.3768536 eV

CRYSTAL
PRIMVEC
		4.74599998		0.00000000		-0.18983981
		0.00000000		10.17999827		0.00000000
		-0.23903819		0.00000000		5.97599741
PRIMECORD
   28 1
Si		1.96250987		0.95590196		1.41310915		 0.00003190		-0.00017638		 0.00023302
Si		2.54444907		9.22409774		4.37305082		-0.00003190		 0.00017638		-0.00023302
Si		4.21599077		4.13409765		4.30618890		 0.00003190		 0.00017638		 0.00023302
Si		0.29096912		6.04590156		1.47997107		-0.00003190		-0.00017638		-0.00023302
Mg		0.00000000		0.00000000		0.00000000		0.00000000		0.00000000		0.00000000
Mg		2.37299999		5.08999961		-0.09491990		-0.00000000		0.00000000		-0.00000000
Mg		-0.11952004		0.00000000		2.98799965		0.00000000		0.00000000		0.00000000
Mg		2.25347994		5.08999961		2.89307975		-0.00000000		0.00000000		-0.00000000
Mg		4.64542402		2.82189599		1.30579276		 0.00001319		-0.00012102		 0.00006771
Mg		-0.13846413		7.35810370		4.48036674		-0.00001319		 0.00012102		-0.00006771
Mg		2.15290398		2.26810409		4.38871279		 0.00001319		 0.00012102		 0.00006771
Mg		2.35405496		7.91189560		1.39744670		-0.00001319		-0.00012102		-0.00006771
O		3.57614968		0.93554196		1.34856371		-0.00038888		 0.00015135		 0.00080615
O		0.93080879		9.24445773		4.43759578		 0.00038888		-0.00015135		-0.00080615
O		1.08363107		4.15445765		4.43148280		-0.00038888		-0.00015135		 0.00080615
O		3.42332882		6.02554157		1.35467575		 0.00038888		 0.00015135		-0.00080615
O		0.98530889		4.54944158		1.45219712		-0.00007718		 0.00027016		-0.00074791
O		3.52165100		5.63055763		4.33396285		 0.00007718		-0.00027016		 0.00074791
O		3.23878883		0.54055803		4.34527687		-0.00007718		-0.00027016		-0.00074791
O		1.26817106		9.63944166		1.44088311		 0.00007718		 0.00027016		 0.00074791
O		1.31000393		1.65730372		0.14628181		-0.00023223		 0.00062780		-0.00040128
O		3.19695596		8.52269550		5.63987768		 0.00023223		-0.00062780		 0.00040128
O		3.45988372		3.43269589		5.62936069		-0.00035075		 0.00041985		-0.00047451
O		1.04707617		6.74730380		0.15679881		 0.00035075		-0.00041985		 0.00047451
O		3.30055564		8.52269550		3.04987903		 0.00035075		 0.00041985		 0.00047451
O		1.20640377		1.65730372		2.73627999		-0.00035075		-0.00041985		-0.00047451
O		0.94347602		6.74730380		2.74679793		 0.00023223		 0.00062780		 0.00040128
O		3.56348387		3.43269589		3.03936204		-0.00023223		-0.00062780		-0.00040128
