# total energy = -20631.899931 eV

CRYSTAL
PRIMVEC
		4.74600150		0.00000000		0.75936235
		0.00000000		10.18000045		0.00000000
		0.95615895		0.00000000		5.97599827
PRIMECORD
   28 1
Si		2.26130997		0.95590181		1.81756283		-0.00028085		-0.00034850		 0.00023640
Si		3.44084905		9.22409768		4.91779683		 0.00028085		 0.00034850		-0.00023640
Si		5.11238972		4.13409793		5.18524267		-0.00028085		 0.00034850		 0.00023640
Si		0.58976882		6.04590156		1.55011700		 0.00028085		-0.00034850		-0.00023640
Mg		0.00000000		0.00000000		0.00000000		0.00000000		0.00000000		0.00000000
Mg		2.37299979		5.08999975		0.37968022		0.00000000		0.00000000		0.00000000
Mg		0.47807996		0.00000000		2.98799962		0.00000000		0.00000000		0.00000000
Mg		2.85107975		5.08999975		3.36767983		0.00000000		0.00000000		0.00000000
Mg		4.94422367		2.82189598		2.24682887		-0.00064250		-0.00049364		-0.00014047
Mg		0.75793583		7.35810351		4.48852983		 0.00064250		 0.00049364		 0.00014047
Mg		3.04930384		2.26810376		4.85514875		-0.00064250		 0.00049364		-0.00014047
Mg		2.65285470		7.91189573		1.88020995		 0.00064250		-0.00049364		 0.00014047
O		3.87494981		0.93554205		2.07574584		-0.00024424		-0.00028692		-0.00044549
O		1.82720873		9.24445744		4.65961382		 0.00024424		 0.00028692		 0.00044549
O		1.98002997		4.15445769		4.68406572		-0.00024424		 0.00028692		-0.00044549
O		3.72212856		6.02554180		2.05129394		 0.00024424		-0.00028692		 0.00044549
O		1.28410875		4.54944185		1.66121083		 0.00038331		-0.00004156		 0.00017510
O		4.41805074		5.63055764		5.07414884		-0.00038331		 0.00004156		-0.00017510
O		4.13518898		0.54055789		5.02889066		 0.00038331		 0.00004156		 0.00017510
O		1.56697100		9.63944160		1.70646900		-0.00038331		-0.00004156		-0.00017510
O		1.34980406		1.65730374		0.40987476		-0.00033964		-0.00047400		 0.00018187
O		4.35235495		8.52269575		6.32548443		 0.00033964		 0.00047400		-0.00018187
O		4.61528376		3.43269601		6.36755261		 0.00025036		 0.00052494		 0.00088612
O		1.08687573		6.74730348		0.36780705		-0.00025036		-0.00052494		-0.00088612
O		3.93795596		8.52269575		3.73548593		-0.00025036		 0.00052494		-0.00088612
O		1.76420402		1.65730374		2.99987278		 0.00025036		-0.00052494		 0.00088612
O		1.50127568		6.74730348		2.95780459		 0.00033964		-0.00047400		-0.00018187
O		4.20088381		3.43269601		3.77755459		-0.00033964		 0.00047400		 0.00018187
