# total energy = -12333.2456518 eV

CRYSTAL
PRIMVEC
		2.46200034		0.00000000		0.29543945
		0.00000000		8.05300059		0.00000000
		0.73296110		0.00000000		6.10800007
PRIMECORD
   20 1
O		0.18323990		0.58786908		1.52700002		 0.00002309		-0.00079800		 0.00002632
O		0.54971996		7.46513077		4.58099980		-0.00002309		 0.00079800		-0.00002632
O		1.41424007		4.61436887		1.67471999		 0.00002304		-0.00079797		 0.00002665
O		1.78071988		3.43863097		4.72871977		-0.00002304		 0.00079797		-0.00002665
O		0.32323498		2.92323897		2.69362789		 0.00006197		-0.00057404		-0.00005666
O		0.40972488		5.12976087		3.41437193		-0.00006197		 0.00057404		 0.00005666
O		0.68971503		5.12976087		5.74762792		 0.00007150		 0.00059317		-0.00004816
O		0.04324507		2.92323897		0.36037190		-0.00007150		-0.00059317		 0.00004816
O		1.55423490		6.94973976		2.84134786		 0.00006203		-0.00057418		-0.00005681
O		1.64072505		1.10326107		3.56209190		-0.00006203		 0.00057418		 0.00005681
O		1.92071495		1.10326107		5.89534789		 0.00007140		 0.00059303		-0.00004797
O		1.27424499		6.94973976		0.50809187		-0.00007140		-0.00059303		 0.00004797
Si		0.00000000		0.00000000		0.00000000		0.00000000		0.00000000		0.00000000
Si		0.36648005		0.00000000		3.05400003		0.00000000		0.00000000		0.00000000
Si		1.23099992		4.02649980		0.14771997		0.00000000		0.00000000		0.00000000
Si		1.59747997		4.02649980		3.20172000		0.00000000		0.00000000		0.00000000
Mg		0.54971996		2.03740888		4.58099980		-0.00004249		-0.00013419		-0.00001254
Mg		0.18323990		6.01559096		1.52700002		 0.00004249		 0.00013419		 0.00001254
Mg		1.78071988		6.06390992		4.72871977		-0.00004257		-0.00013427		-0.00001244
Mg		1.41424007		1.98909092		1.67471999		 0.00004257		 0.00013427		 0.00001244
