# total energy = -12339.80898 eV	

CRYSTAL	
PRIMVEC	
		2.46200010		0.00000000		0.00000000	
		0.00000000		8.05300044		0.32212071	
		0.00000000		0.24431904		6.10800066	
PRIMCOORD
   20 1	
O		0.00000000		0.64894900		1.55051497		0.00000000		 0.00087111		 0.00007586	
O		0.00000000		7.64837121		4.87960516		0.00000000		-0.00087111		-0.00007586	
O		1.23100005		4.67544922		1.71157508		0.00000000		 0.00087120		 0.00007419	
O		1.23100005		3.62187124		4.71854530		0.00000000		-0.00087120		-0.00007419	
O		0.00000000		3.03098408		2.81055801		0.00000000		 0.00050953		-0.00038116	
O		0.00000000		5.26633614		3.61956213		0.00000000		-0.00050953		 0.00038116	
O		0.00000000		5.35966613		5.95281834		0.00000000		 0.00004660		 0.00007543	
O		0.00000000		2.93765409		0.47730107		0.00000000		-0.00004660		-0.00007543	
O		1.23100005		7.05748528		2.97161812		0.00000000		 0.00050988		-0.00038092	
O		1.23100005		1.23983617		3.45850202		0.00000000		-0.00050988		 0.00038092	
O		1.23100005		1.33316616		5.79175823		0.00000000		 0.00004735		 0.00007491	
O		1.23100005		6.96415529		0.63836093		0.00000000		-0.00004735		-0.00007491	
Si		0.00000000		0.00000000		0.00000000		0.00000000		0.00000000		0.00000000	
Si		0.00000000		0.12216001		3.05400009		0.00000000		0.00000000		0.00000000	
Si		1.23100005		4.02650022		0.16106011		0.00000000		0.00000000		0.00000000	
Si		1.23100005		4.14866023		3.21506019		0.00000000		0.00000000		0.00000000	
Mg		0.00000000		2.22064900		4.66249615		0.00000000		-0.00044536		 0.00011098	
Mg		0.00000000		6.07667122		1.76762399		0.00000000		 0.00044536		-0.00011098	
Mg		1.23100005		6.24715020		4.82355625		0.00000000		-0.00044512		 0.00011074	
Mg		1.23100005		2.05017100		1.60656413		0.00000000		 0.00044512		-0.00011074	
