# total energy = -18531.0883884 eV

CRYSTAL
PRIMVEC
		7.51000005		-0.00016160		-0.04167823
		-0.00014052		6.77498209		-0.00030914
		-0.48891826		-0.00019673		4.71083463
PRIMECORD
   30 1
Mg		0.07155911		1.69417727		2.46882890		-0.00040976		-0.00042208		 0.00000399
Mg		6.94938427		5.08044579		2.20001906		 0.00040977		 0.00042209		-0.00000399
Mg		4.97358384		1.69466066		4.31950189		 0.00018747		-0.00051455		-0.00047957
Mg		2.04735953		5.07996310		0.34934607		-0.00018746		 0.00051454		 0.00047957
Mg		2.84943153		1.69401146		0.28183042		 0.00020727		-0.00041718		 0.00058496
Mg		4.17151184		5.08061230		4.38701753		-0.00020728		 0.00041719		-0.00058497
Si		0.00000000		0.00000000		0.00000000		-0.00000000		0.00000000		-0.00000000
Si		-0.00007026		3.38748964		-0.00015317		0.00000000		-0.00000000		-0.00000000
Si		2.19674283		3.40253511		2.60034016		 0.00005197		-0.00021475		 0.00041875
Si		4.82420054		3.37208865		2.06850779		-0.00005197		 0.00021475		-0.00041875
Si		4.82436495		0.01498786		2.06868696		-0.00004670		-0.00019661		-0.00041351
Si		2.19657842		6.75963590		2.60016029		 0.00004670		 0.00019661		 0.00041352
O		5.91066394		3.75994633		0.70505840		-0.00001122		 0.00025869		-0.00020877
O		1.11027943		3.01467743		3.96378956		 0.00001122		-0.00025869		 0.00020877
O		1.11045719		0.37238151		3.96396591		-0.00001970		 0.00033243		 0.00018005
O		5.91048618		6.40224225		0.70488204		 0.00001970		-0.00033243		-0.00018005
O		6.20792768		2.99797031		3.12503833		 0.00008541		-0.00011325		-0.00023450
O		0.81301570		3.77665345		1.54380963		-0.00008541		 0.00011326		 0.00023451
O		0.81278665		6.38581265		1.54368738		-0.00006747		-0.00028428		 0.00021662
O		6.20815673		0.38881111		3.12516058		 0.00006747		 0.00028428		-0.00021663
O		2.03099457		1.69384915		2.07708724		 0.00010828		-0.00012933		 0.00006623
O		4.98994880		5.08077390		2.59176071		-0.00010828		 0.00012933		-0.00006623
O		3.32350175		3.72235653		1.20439622		-0.00011928		-0.00004563		-0.00008361
O		3.69744163		3.05226723		3.46445174		 0.00011929		 0.00004563		 0.00008360
O		3.69758074		0.33540367		3.46440818		 0.00010388		-0.00015470		 0.00009395
O		3.32336263		6.43922008		1.20443978		-0.00010387		 0.00015469		-0.00009395
O		4.70717900		1.69373814		1.46653979		 0.00014949		-0.00012329		-0.00017129
O		2.31376508		5.08088562		3.20230817		-0.00014950		 0.00012329		 0.00017129
O		7.30492446		1.69381473		0.44742762		 0.00072128		-0.00011535		-0.00000556
O		-0.28398108		5.08080903		4.22141963		-0.00072128		 0.00011536		 0.00000555
