# total energy = -18531.222904 eV

CRYSTAL
PRIMVEC
		7.52959556		-0.00014052		-0.04508584
		-0.00012647		6.79752852		-0.00033022
		-0.49211509		-0.00021078		4.73099222
PRIMECORD
   30 1
Mg		0.06697675		1.69982477		2.47747790		-0.00045736		-0.00043820		-0.00008574
Mg		6.97038147		5.09734753		2.20809544		 0.00045736		 0.00043819		 0.00008574
Mg		4.98170800		1.70044657		4.33663619		 0.00010698		-0.00054011		-0.00051995
Mg		2.05565092		5.09672573		0.34893786		-0.00010698		 0.00054011		 0.00051996
Mg		2.84655087		1.69956340		0.28899273		 0.00034787		-0.00039308		 0.00057931
Mg		4.19080805		5.09760820		4.39658062		-0.00034786		 0.00039307		-0.00057931
Si		0.00000000		0.00000000		0.00000000		-0.00000000		-0.00000000		-0.00000000
Si		-0.00006183		3.39876285		-0.00016511		-0.00000000		0.00000000		-0.00000000
Si		2.20139264		3.41406618		2.61108924		 0.00004115		-0.00025438		 0.00048083
Si		4.83596558		3.38310612		2.07448411		-0.00004114		 0.00025438		-0.00048083
Si		4.83613912		0.01528155		2.07468786		-0.00003722		-0.00023690		-0.00047698
Si		2.20121910		6.78189005		2.61088548		 0.00003723		 0.00023690		 0.00047698
O		5.92640921		3.77053029		0.70684019		-0.00003422		 0.00029914		-0.00021429
O		1.11094971		3.02664130		3.97873316		 0.00003422		-0.00029914		 0.00021429
O		1.11109375		0.37168594		3.97888632		 0.00000348		 0.00035687		 0.00018333
O		5.92626447		6.42548566		0.70668702		-0.00000348		-0.00035687		-0.00018332
O		6.22152931		3.00867652		3.13765702		 0.00013197		-0.00014102		-0.00027584
O		0.81582961		3.78849578		1.54791632		-0.00013197		 0.00014103		 0.00027584
O		0.81561040		6.40778436		1.54777370		-0.00011113		-0.00031303		 0.00025669
O		6.22174782		0.38938795		3.13780035		 0.00011113		 0.00031303		-0.00025669
O		2.03217916		1.69949244		2.08995536		 0.00015005		-0.00013347		 0.00007207
O		5.00517906		5.09767916		2.59561869		-0.00015005		 0.00013346		-0.00007207
O		3.33057623		3.73187957		1.21204542		-0.00015589		-0.00002606		-0.00010695
O		3.70678199		3.06529274		3.47352793		 0.00015588		 0.00002605		 0.00010694
O		3.70690916		0.33366193		3.47350404		 0.00014042		-0.00011336		 0.00011597
O		3.33044906		6.46350967		1.21207001		-0.00014042		 0.00011336		-0.00011597
O		4.72006117		1.69939478		1.47154792		 0.00015334		-0.00012949		-0.00019871
O		2.31729775		5.09777752		3.21402543		-0.00015334		 0.00012949		 0.00019871
O		7.32434432		1.69948611		0.44365607		 0.00086125		-0.00012137		 0.00002054
O		-0.28698540		5.09768619		4.24191728		-0.00086126		 0.00012139		-0.00002053
