# total energy = -18531.326323 eV

CRYSTAL
PRIMVEC
		7.64049395		-0.00031617		-0.07055509
		-0.00027401		6.92703878		-0.00041453
		-0.51371302		-0.00025294		4.84700553
PRIMECORD
   30 1
Mg		0.03906737		1.73178112		2.52607885		-0.00039555		-0.00022201		-0.00001848
Mg		7.08743955		5.19468433		2.24995776		 0.00039554		 0.00022201		 0.00001848
Mg		5.02530574		1.73253361		4.42808028		-0.00024858		-0.00038032		-0.00031988
Mg		2.10120118		5.19393185		0.34795633		 0.00024857		 0.00038031		 0.00031989
Mg		2.82393207		1.73333598		0.33832227		 0.00005577		-0.00033426		 0.00020224
Mg		4.30257485		5.19312948		4.43771433		-0.00005576		 0.00033426		-0.00020223
Si		0.00000000		0.00000000		0.00000000		-0.00000000		-0.00000000		0.00000000
Si		-0.00013771		3.46351939		-0.00020727		-0.00000000		0.00000000		0.00000000
Si		2.22665462		3.48014501		2.67542913		-0.00006998		-0.00000489		-0.00001886
Si		4.89985229		3.44632044		2.10060748		 0.00006998		 0.00000490		 0.00001886
Si		4.89979468		0.01621741		2.10081264		 0.00007742		-0.00001562		 0.00002539
Si		2.22671294		6.91024804		2.67522397		-0.00007741		 0.00001561		-0.00002539
O		6.01227747		3.83019087		0.70718446		 0.00007350		-0.00003462		-0.00009511
O		1.11423015		3.09627458		4.06885285		-0.00007350		 0.00003463		 0.00009509
O		1.11451119		0.36742326		4.06878399		-0.00007723		-0.00005946		 0.00009961
O		6.01199572		6.55904219		0.70725332		 0.00007723		 0.00005945		-0.00009963
O		6.29890946		3.06989266		3.20138846		-0.00016856		 0.00005826		 0.00008003
O		0.82759746		3.85657280		1.57464885		 0.00016858		-0.00005825		-0.00008003
O		0.82738316		6.53449616		1.57447460		 0.00016624		-0.00009428		-0.00008299
O		6.29912375		0.39196930		3.20156200		-0.00016626		 0.00009427		 0.00008298
O		2.03667088		1.73219847		2.16810696		-0.00014145		-0.00011942		 0.00019728
O		5.08983674		5.19426699		2.60792965		 0.00014146		 0.00011941		-0.00019729
O		3.36476053		3.78495889		1.25535017		 0.00006684		-0.00020641		 0.00010288
O		3.76174639		3.14150657		3.52068644		-0.00006685		 0.00020641		-0.00010289
O		3.76215600		0.32168541		3.52054521		-0.00007057		-0.00019057		-0.00010228
O		3.36435161		6.60478005		1.25549210		 0.00007058		 0.00019057		 0.00010228
O		4.79213388		1.73167854		1.49366436		 0.00005179		-0.00011646		-0.00018234
O		2.33437304		5.19478691		3.28237295		-0.00005180		 0.00011646		 0.00018236
O		7.43826178		1.73169189		0.41508554		-0.00022503		-0.00011432		 0.00007431
O		-0.31175486		5.19477356		4.36095107		 0.00022502		 0.00011433		-0.00007431
