# total energy = -49447.0348996 eV	

CRYSTAL	
PRIMVEC	
		5.01984808		-0.00000509		0.00000000	
		-0.00001018		13.77213985		0.00000000	
		0.00000000		0.00000000		8.59787938	
PRIMCOORD
   70 1	
Si		2.50992455		0.00000000		0.00000000		 0.00000002		-0.00000009		 0.00000014	
Si		0.00000000		6.88607094		4.29894122		-0.00000005		 0.00000002		-0.00000008	
Si		2.44448199		5.17597967		0.00000000		-0.00046356		 0.00000975		 0.00000035	
Si		2.57535744		8.59615865		0.00000000		 0.00046408		-0.00000951		-0.00000012	
Si		0.06543441		12.06204400		4.29894122		 0.00045182		 0.00003534		-0.00000031	
Si		4.95440502		1.71009483		4.29894071		-0.00045182		-0.00003547		-0.00000016	
Mg		0.82783719		2.38601853		0.00000000		-0.00002925		 0.00046508		 0.00000007	
Mg		4.19200224		11.38611979		0.00000000		 0.00002923		-0.00046505		 0.00000004	
Mg		1.68207870		9.27208693		4.29894122		 0.00002984		 0.00047122		-0.00000005	
Mg		3.33776073		4.50005139		4.29894071		-0.00002982		-0.00047118		-0.00000003	
Mg		0.79047998		4.45560821		2.78818545		-0.00001584		-0.00026010		-0.00003618	
Mg		4.22935945		9.31653062		5.80969647		 0.00001581		 0.00026013		 0.00003608	
Mg		4.22935945		9.31653062		2.78818596		 0.00001580		 0.00026018		-0.00003614	
Mg		0.79047998		4.45560821		5.80969647		-0.00001582		-0.00026012		 0.00003612	
Mg		1.71943286		11.34167661		1.51075526		 0.00001789		-0.00025409		 0.00003780	
Mg		3.30040606		2.43046222		7.08712667		-0.00001781		 0.00025414		-0.00003771	
Mg		3.30040657		2.43046172		1.51075475		-0.00001783		 0.00025419		 0.00003777	
Mg		1.71943286		11.34167712		7.08712717		 0.00001782		-0.00025419		-0.00003775	
Mg		2.50991997		6.88606942		2.76859024		-0.00000001		0.00000000		-0.00055578	
Mg		2.50991997		6.88606942		5.82929117		 0.00000002		0.00000000		 0.00055577	
Mg		0.00000000		0.00000000		1.53034995		-0.00000000		-0.00000007		 0.00055811	
Mg		0.00000000		0.00000000		7.06753146		 0.00000001		-0.00000000		-0.00055806	
Mg		2.50992455		0.00000000		2.93637045		-0.00000002		-0.00000008		 0.00030298	
Mg		2.50992404		0.00000000		5.66151096		 0.00000001		-0.00000002		-0.00030305	
Mg		0.00000000		6.88607094		1.36256975		-0.00000007		-0.00000009		-0.00029920	
Mg		0.00000000		6.88607145		7.23531268		-0.00000005		-0.00000006		 0.00029923	
O		1.66973996		5.70031713		1.35859951		-0.00041467		 0.00009102		-0.00034585	
O		3.35009947		8.07182171		7.23928242		 0.00041460		-0.00009102		 0.00034587	
O		3.35009947		8.07182120		1.35859951		 0.00041477		-0.00009108		-0.00034575	
O		1.66973996		5.70031763		7.23928242		-0.00041484		 0.00009114		 0.00034556	
O		0.84017186		12.58638960		2.94034222		 0.00041503		 0.00008850		 0.00034425	
O		4.17966757		1.18574924		5.65753970		-0.00041505		-0.00008849		-0.00034407	
O		4.17966757		1.18574924		2.94034171		-0.00041498		-0.00008837		 0.00034419	
O		0.84017186		12.58638960		5.65754021		 0.00041505		 0.00008848		-0.00034398	
O		2.47042114		3.54012951		0.00000000		 0.00005845		 0.00004454		-0.00000004	
O		2.54941829		10.23200881		0.00000000		-0.00005852		-0.00004475		-0.00000006	
O		0.03949323		10.42620860		4.29894122		-0.00005680		 0.00002344		 0.00000015	
O		4.98034620		3.34593023		4.29894071		 0.00005680		-0.00002340		0.00000000	
O		4.01801958		5.68977342		0.00000000		-0.00035385		-0.00005848		-0.00000009	
O		1.00181985		8.08236491		0.00000000		 0.00035353		 0.00005863		 0.00000016	
O		3.51173779		12.57584436		4.29894122		 0.00036466		-0.00006038		 0.00000004	
O		1.50810164		1.19629396		4.29894071		-0.00036463		 0.00006049		 0.00000001	
O		1.77172085		1.02119571		1.26520851		 0.00022633		-0.00025011		-0.00041389	
O		3.24811858		12.75094313		7.33267341		-0.00022630		 0.00025015		 0.00041377	
O		3.24811858		12.75094262		1.26520902		-0.00022636		 0.00025019		-0.00041387	
O		1.77172085		1.02119622		7.33267290		 0.00022631		-0.00025013		 0.00041377	
O		0.73819760		7.90726716		3.03373321		-0.00022541		-0.00025044		 0.00041228	
O		4.28164235		5.86487116		5.56414871		 0.00022542		 0.00025043		-0.00041226	
O		4.28164235		5.86487116		3.03373271		 0.00022541		 0.00025044		 0.00041236	
O		0.73819709		7.90726767		5.56414922		-0.00022539		-0.00025051		-0.00041227	
O		4.92493383		3.49238382		1.36213460		-0.00005690		 0.00024385		-0.00007329	
O		0.09490560		10.27975501		7.23574732		 0.00005681		-0.00024355		 0.00007310	
O		0.09490509		10.27975654		1.36213613		 0.00005879		-0.00024898		-0.00007650	
O		4.92493383		3.49238331		7.23574630		-0.00005738		 0.00024509		 0.00007403	
O		2.60483422		10.37847003		2.93681425		 0.00004238		 0.00019735		 0.00004718	
O		2.41500521		3.39366829		5.66106767		-0.00004211		-0.00019657		-0.00004665	
O		2.41500521		3.39366829		2.93681374		-0.00004207		-0.00019661		 0.00004663	
O		2.60483422		10.37847054		5.66106818		 0.00004179		 0.00019577		-0.00004605	
O		0.96830667		12.67583122		0.00000000		 0.00090414		 0.00065097		-0.00000015	
O		4.05153277		1.09630711		0.00000000		-0.00090411		-0.00065088		-0.00000008	
O		1.54160516		5.78975926		4.29894071		-0.00090433		 0.00065208		 0.00000009	
O		3.47823427		7.98237958		4.29894122		 0.00090436		-0.00065210		 0.00000006	
H		4.62264231		4.28330149		0.86793250		-0.00027321		 0.00011371		 0.00045890	
H		0.39719661		9.48883734		7.72994942		 0.00027329		-0.00011393		-0.00045875	
H		0.39719763		9.48883531		0.86793200		 0.00027143		-0.00010907		 0.00046187	
H		4.62264231		4.28330200		7.72994891		-0.00027280		 0.00011261		-0.00045959	
H		2.90711556		11.16936124		3.43100057		 0.00028829		 0.00015390		-0.00043384	
H		2.11272387		2.60277811		5.16688135		-0.00028856		-0.00015462		 0.00043339	
H		2.11272387		2.60277760		3.43100006		-0.00028856		-0.00015465		-0.00043336	
H		2.90711556		11.16936073		5.16688186		 0.00028885		 0.00015540		 0.00043286	
