# total energy = -49447.4934249 eV	

CRYSTAL	
PRIMVEC	
		5.04417541		0.00000000		0.00000000	
		0.00000000		13.83549270		0.00000000	
		0.00000000		0.00000000		8.63742401	
PRIMCOORD
   70 1	
Si		2.52208669		0.00000000		0.00000000		 0.00000001		-0.00000010		 0.00000011	
Si		0.00000000		6.91774584		4.31871302		-0.00000003		-0.00000003		-0.00000011	
Si		2.45552752		5.20116559		0.00000000		-0.00039704		 0.00004034		 0.00000030	
Si		2.58864484		8.63432559		0.00000000		 0.00039753		-0.00004012		 0.00000009	
Si		0.06655815		12.11891092		4.31871302		 0.00039628		 0.00004276		-0.00000024	
Si		4.97761421		1.71658076		4.31871302		-0.00039636		-0.00004284		-0.00000016	
Mg		0.83472061		2.39840562		0.00000000		-0.00006069		 0.00044812		 0.00000007	
Mg		4.20945124		11.43708555		0.00000000		 0.00006067		-0.00044804		 0.00000005	
Mg		1.68736506		9.31615146		4.31871302		 0.00006085		 0.00044888		-0.00000006	
Mg		3.35680781		4.51934022		4.31871302		-0.00006083		-0.00044880		-0.00000004	
Mg		0.79418048		4.47503903		2.80041731		-0.00001540		-0.00022021		-0.00007724	
Mg		4.24999188		9.36045265		5.83700874		 0.00001536		 0.00022027		 0.00007716	
Mg		4.24999188		9.36045265		2.80041731		 0.00001537		 0.00022026		-0.00007723	
Mg		0.79418048		4.47503903		5.83700874		-0.00001536		-0.00022025		 0.00007720	
Mg		1.72790468		11.39278436		1.51829571		 0.00001564		-0.00021951		 0.00007752	
Mg		3.31626717		2.44270732		7.11913034		-0.00001557		 0.00021956		-0.00007742	
Mg		3.31626768		2.44270732		1.51829571		-0.00001560		 0.00021957		 0.00007750	
Mg		1.72790468		11.39278436		7.11913034		 0.00001557		-0.00021956		-0.00007747	
Mg		2.52208618		6.91774584		2.78091270		-0.00000001		-0.00000001		-0.00051049	
Mg		2.52208618		6.91774584		5.85651284		-0.00000000		-0.00000001		 0.00051046	
Mg		0.00000000		0.00000000		1.53780033		 0.00000001		-0.00000005		 0.00051075	
Mg		0.00000000		0.00000000		7.09962572		 0.00000001		-0.00000003		-0.00051071	
Mg		2.52208669		0.00000000		2.94984464		-0.00000001		-0.00000008		 0.00028694	
Mg		2.52208669		0.00000000		5.68758090		0.00000000		-0.00000004		-0.00028697	
Mg		0.00000000		6.91774584		1.36886788		-0.00000006		-0.00000009		-0.00028666	
Mg		0.00000000		6.91774584		7.26855766		-0.00000004		-0.00000007		 0.00028671	
O		1.67805146		5.72591681		1.36220433		-0.00039238		 0.00008263		-0.00035740	
O		3.36612090		8.10957488		7.27522172		 0.00039236		-0.00008258		 0.00035731	
O		3.36612090		8.10957488		1.36220433		 0.00039239		-0.00008263		-0.00035739	
O		1.67805146		5.72591681		7.27522172		-0.00039250		 0.00008267		 0.00035712	
O		0.84403421		12.64366265		2.95650870		 0.00039242		 0.00008233		 0.00035718	
O		4.20013815		1.19182903		5.68091684		-0.00039244		-0.00008226		-0.00035702	
O		4.20013815		1.19182903		2.95650870		-0.00039238		-0.00008223		 0.00035714	
O		0.84403421		12.64366265		5.68091735		 0.00039246		 0.00008230		-0.00035694	
O		2.48206161		3.56076194		0.00000000		 0.00001792		-0.00003023		-0.00000009	
O		2.56211075		10.27472974		0.00000000		-0.00001800		 0.00003004		-0.00000009	
O		0.04002406		10.47850829		4.31871302		-0.00001789		-0.00003223		 0.00000013	
O		5.00414830		3.35698339		4.31871302		 0.00001791		 0.00003222		 0.00000003	
O		4.03163932		5.71669329		0.00000000		-0.00037141		-0.00010492		-0.00000002	
O		1.01253304		8.11879789		0.00000000		 0.00037109		 0.00010506		 0.00000008	
O		3.53461871		12.63443913		4.31871302		 0.00037188		-0.00010553		-0.00000003	
O		1.50955365		1.20105204		4.31871302		-0.00037179		 0.00010566		-0.00000002	
O		1.78260707		1.02341520		1.26756796		 0.00021125		-0.00020735		-0.00035189	
O		3.26156529		12.81207649		7.36985809		-0.00021125		 0.00020740		 0.00035181	
O		3.26156529		12.81207598		1.26756796		-0.00021127		 0.00020744		-0.00035186	
O		1.78260707		1.02341520		7.36985809		 0.00021126		-0.00020737		 0.00035179	
O		0.73947911		7.94116104		3.05114507		-0.00021123		-0.00020753		 0.00035163	
O		4.30469325		5.89433065		5.58628098		 0.00021123		 0.00020752		-0.00035158	
O		4.30469325		5.89433065		3.05114507		 0.00021122		 0.00020755		 0.00035165	
O		0.73947911		7.94116104		5.58628098		-0.00021122		-0.00020754		-0.00035156	
O		4.94849979		3.50684179		1.36810192		-0.00012945		 0.00035734		-0.00013375	
O		0.09567257		10.32864939		7.26932413		 0.00012938		-0.00035718		 0.00013355	
O		0.09567206		10.32865041		1.36810294		 0.00013067		-0.00036064		-0.00013580	
O		4.94849979		3.50684230		7.26932413		-0.00012936		 0.00035708		 0.00013351	
O		2.61775926		10.42458865		2.95061110		 0.00012864		 0.00035437		 0.00013237	
O		2.42641310		3.41090253		5.68681444		-0.00012808		-0.00035276		-0.00013128	
O		2.42641310		3.41090304		2.95061110		-0.00012859		-0.00035423		 0.00013221	
O		2.61775977		10.42458966		5.68681393		 0.00012780		 0.00035203		-0.00013080	
O		0.97524199		12.73524080		0.00000000		 0.00078881		 0.00056700		-0.00000007	
O		4.06893037		1.10025088		0.00000000		-0.00078877		-0.00056693		-0.00000004	
O		1.54684368		5.81749496		4.31871302		-0.00078885		 0.00056697		 0.00000006	
O		3.49732868		8.01799672		4.31871302		 0.00078889		-0.00056698		 0.00000004	
H		4.64485296		4.29702098		0.87275929		-0.00020642		-0.00000810		 0.00052835	
H		0.39931940		9.53847070		7.76466676		 0.00020649		 0.00000795		-0.00052824	
H		0.39931991		9.53846968		0.87275878		 0.00020526		 0.00001111		 0.00053029	
H		4.64485296		4.29702098		7.76466676		-0.00020652		-0.00000785		-0.00052818	
H		2.92140558		11.21476581		3.44595322		 0.00020728		-0.00000576		-0.00052697	
H		2.12276729		2.62072587		5.19147282		-0.00020787		 0.00000427		 0.00052601	
H		2.12276678		2.62072587		3.44595322		-0.00020735		 0.00000559		-0.00052686	
H		2.92140507		11.21476530		5.19147282		 0.00020811		-0.00000362		 0.00052557	
