# total energy = -49447.8457047 eV	

CRYSTAL	
PRIMVEC	
		5.07034002		0.00000000		0.00000000	
		0.00000509		13.90256590		0.00000000	
		0.00000000		0.00000000		8.67929960	
PRIMCOORD
   70 1	
Si		2.53516899		0.00000000		0.00000000		-0.00000002		-0.00000001		 0.00000001	
Si		0.00000000		6.95128346		4.33965031		 0.00000001		 0.00000005		-0.00000001	
Si		2.46817671		5.22730678		0.00000000		-0.00042902		 0.00016333		 0.00000031	
Si		2.60216483		8.67526167		0.00000000		 0.00042895		-0.00016330		-0.00000032	
Si		0.06699482		12.17859227		4.33965031		 0.00043428		 0.00015331		-0.00000038	
Si		5.00334672		1.72397566		4.33964980		-0.00043401		-0.00015346		 0.00000038	
Mg		0.84335885		2.41120852		0.00000000		-0.00035731		 0.00039299		 0.00000003	
Mg		4.22698270		11.49135942		0.00000000		 0.00035731		-0.00039303		-0.00000002	
Mg		1.69181269		9.36249299		4.33964980		 0.00035712		 0.00038994		-0.00000001	
Mg		3.37852886		4.54007494		4.33964980		-0.00035712		-0.00038996		 0.00000002	
Mg		0.79894620		4.49580989		2.81242575		-0.00018362		-0.00012814		 0.00018890	
Mg		4.27139535		9.40675805		5.86687435		 0.00018364		 0.00012812		-0.00018889	
Mg		4.27139535		9.40675805		2.81242575		 0.00018359		 0.00012823		 0.00018886	
Mg		0.79894620		4.49580989		5.86687435		-0.00018358		-0.00012827		-0.00018888	
Mg		1.73622686		11.44709437		1.52722404		 0.00018279		-0.00013100		-0.00018973	
Mg		3.33411468		2.45547357		7.15207606		-0.00018283		 0.00013097		 0.00018972	
Mg		3.33411468		2.45547357		1.52722404		-0.00018277		 0.00013107		-0.00018972	
Mg		1.73622686		11.44709437		7.15207606		 0.00018276		-0.00013110		 0.00018972	
Mg		2.53517103		6.95128397		2.79375122		-0.00000001		-0.00000003		-0.00030563	
Mg		2.53517103		6.95128397		5.88554889		-0.00000003		 0.00000010		 0.00030566	
Mg		0.00000000		0.00000000		1.54589909		 0.00000004		 0.00000001		 0.00030458	
Mg		0.00000000		0.00000000		7.13340203		 0.00000002		 0.00000007		-0.00030458	
Mg		2.53516899		0.00000000		2.96368984		-0.00000004		 0.00000002		 0.00056553	
Mg		2.53516899		0.00000000		5.71561077		-0.00000004		 0.00000009		-0.00056549	
Mg		0.00000000		6.95128346		1.37596047		 0.00000001		-0.00000001		-0.00056694	
Mg		0.00000000		6.95128295		7.30333964		-0.00000002		 0.00000010		 0.00056691	
O		1.68750299		5.75267178		1.36572517		-0.00039241		 0.00025099		-0.00034863	
O		3.38283856		8.14989615		7.31357493		 0.00039240		-0.00025106		 0.00034865	
O		3.38283856		8.14989666		1.36572517		 0.00039253		-0.00025102		-0.00034834	
O		1.68750299		5.75267178		7.31357493		-0.00039248		 0.00025096		 0.00034835	
O		0.84767109		12.70395422		2.97392411		 0.00039211		 0.00025206		 0.00034943	
O		4.22267045		1.19861371		5.70537599		-0.00039212		-0.00025212		-0.00034941	
O		4.22267096		1.19861371		2.97392462		-0.00039234		-0.00025218		 0.00034906	
O		0.84767059		12.70395422		5.70537548		 0.00039228		 0.00025214		-0.00034911	
O		2.49433877		3.58207991		0.00000000		 0.00038241		 0.00013777		-0.00000010	
O		2.57600277		10.32048803		0.00000000		-0.00038238		-0.00013775		 0.00000009	
O		0.04083378		10.53336032		4.33964980		-0.00038311		 0.00014584		 0.00000006	
O		5.02950776		3.36920762		4.33965031		 0.00038306		-0.00014575		-0.00000005	
O		4.04707700		5.74448650		0.00000000		-0.00065255		-0.00012661		-0.00000010	
O		1.02326455		8.15808144		0.00000000		 0.00065258		 0.00012657		 0.00000007	
O		3.55843609		12.69576945		4.33964980		 0.00064815		-0.00012550		 0.00000020	
O		1.51190546		1.20679849		4.33965031		-0.00064828		 0.00012545		-0.00000015	
O		1.79487507		1.02569983		1.27013963		-0.00005066		-0.00016856		-0.00026598	
O		3.27546647		12.87686811		7.40916048		 0.00005067		 0.00016855		 0.00026591	
O		3.27546647		12.87686862		1.27013963		 0.00005070		 0.00016861		-0.00026599	
O		1.79487507		1.02569932		7.40916098		-0.00005066		-0.00016865		 0.00026597	
O		0.74029646		7.97698227		3.06950966		 0.00005025		-0.00016829		 0.00026666	
O		4.33004508		5.92558567		5.60979044		-0.00005025		 0.00016823		-0.00026662	
O		4.33004508		5.92558567		3.06950966		-0.00005025		 0.00016829		 0.00026666	
O		0.74029646		7.97698227		5.60979044		 0.00005020		-0.00016837		-0.00026662	
O		4.97420431		3.52118626		1.37455885		 0.00003059		 0.00028960		-0.00008913	
O		0.09613724		10.38138168		7.30474126		-0.00003066		-0.00028949		 0.00008907	
O		0.09613724		10.38138269		1.37455935		-0.00002997		-0.00029140		-0.00009014	
O		4.97420431		3.52118524		7.30474075		 0.00002974		 0.00029202		 0.00009050	
O		2.63130419		10.47246208		2.96508688		-0.00002360		 0.00031114		 0.00010142	
O		2.43903685		3.43010534		5.71421322		 0.00002394		-0.00031020		-0.00010086	
O		2.43903786		3.43010738		2.96508586		 0.00002224		-0.00031482		 0.00010367	
O		2.63130368		10.47246056		5.71421424		-0.00002171		 0.00031617		-0.00010450	
O		0.98278194		12.79765516		0.00000000		 0.00056985		 0.00094287		-0.00000007	
O		4.08756012		1.10491277		0.00000000		-0.00056987		-0.00094287		 0.00000002	
O		1.55239214		5.84637221		4.33965031		-0.00056991		 0.00094227		 0.00000007	
O		3.51794940		8.05619572		4.33965031		 0.00056997		-0.00094229		-0.00000004	
H		4.66893549		4.30978011		0.87749701		-0.00020479		 0.00031156		 0.00046673	
H		0.40140605		9.59278834		7.80180309		 0.00020482		-0.00031164		-0.00046669	
H		0.40140605		9.59278783		0.87749650		 0.00020417		-0.00031000		 0.00046772	
H		4.66893498		4.30978011		7.80180360		-0.00020396		 0.00030945		-0.00046807	
H		2.93657759		11.26106815		3.46215635		 0.00019769		 0.00029295		-0.00047842	
H		2.13376447		2.64150030		5.21714427		-0.00019801		-0.00029380		 0.00047790	
H		2.13376396		2.64149877		3.46215686		-0.00019642		-0.00028970		-0.00048052	
H		2.93657810		11.26106968		5.21714274		 0.00019594		 0.00028844		 0.00048131	
