# total energy = -49446.8594693 eV

CRYSTAL
PRIMVEC
		5.08939982		0.00000000		0.00000000
		0.00000000		13.96800031		-0.55871940
		0.00000000		-0.34782485		8.69560094
PRIMECORD
   70 1
Si		2.54469991		0.00000000		0.00000000		0.00000000		0.00000000		0.00000000
Si		0.00000000		6.81008773		4.06843975		0.00000000		0.00000000		0.00000000
Si		2.47349870		5.25923157		-0.21036881		-0.00026660		-0.00013003		 0.00002356
Si		2.61590112		8.70876773		-0.34835110		 0.00026660		 0.00013003		-0.00002356
Si		0.07120121		12.06931981		3.85806992		 0.00026660		-0.00013003		 0.00002356
Si		5.01819861		1.55085718		4.27880908		-0.00026660		 0.00013003		-0.00002356
Mg		0.86219522		2.42358797		-0.09694391		 0.00002559		 0.00045780		 0.00066058
Mg		4.22720460		11.54441183		-0.46177601		-0.00002559		-0.00045780		-0.00066058
Mg		1.68250469		9.23367570		3.97149585		-0.00002559		 0.00045780		 0.00066058
Mg		3.40689513		4.38649976		4.16538264		 0.00002559		-0.00045780		-0.00066058
Mg		0.80570289		4.40546388		2.63491207		-0.00057205		 0.00020986		-0.00040347
Mg		4.28369694		9.21471260		5.50196795		 0.00057205		-0.00020986		 0.00040347
Mg		4.28369694		9.33728570		2.43763879		-0.00063874		 0.00026874		 0.00008402
Mg		0.80570289		4.28289078		5.69924072		 0.00063874		-0.00026874		-0.00008402
Mg		1.73899703		11.44080285		1.07208105		-0.00063874		-0.00026874		-0.00008402
Mg		3.35040280		2.17937312		7.06479794		 0.00063874		 0.00026874		 0.00008402
Mg		3.35040280		2.40462385		1.43352819		-0.00057205		-0.00020986		 0.00040347
Mg		1.73899703		11.21555161		6.70335080		 0.00057205		 0.00020986		-0.00040347
Mg		2.54469991		6.87225475		2.51427497		 0.00078355		-0.00033024		-0.00027567
Mg		2.54469991		6.74792173		5.62260403		-0.00078355		 0.00033024		 0.00027567
Mg		0.00000000		-0.06216702		1.55416478		 0.00078355		 0.00033024		 0.00027567
Mg		0.00000000		-0.28565682		7.14143463		-0.00078355		-0.00033024		-0.00027567
Mg		2.54469991		-0.11891790		2.97293881		-0.00051230		-0.00044118		 0.00005296
Mg		2.54469991		-0.22890594		5.72266061		 0.00051230		 0.00044118		-0.00005296
Mg		0.00000000		6.92900563		1.09550095		-0.00051230		 0.00044118		-0.00005296
Mg		0.00000000		6.69117085		7.04137754		 0.00051230		-0.00044118		 0.00005296
O		1.69075002		5.71699560		1.12670507		-0.00046133		 0.00032063		-0.00026547
O		3.39864980		7.90317986		7.01017392		 0.00046133		-0.00032063		 0.00026547
O		3.39864980		8.14239947		1.02968890		 0.00027256		 0.00005184		-0.00025662
O		1.69075002		5.47777701		7.10719061		-0.00027256		-0.00005184		 0.00025662
O		0.85394989		12.63568858		2.48003094		 0.00027256		-0.00005184		 0.00025662
O		4.23544892		0.98448790		5.65684856		-0.00027256		 0.00005184		-0.00025662
O		4.23544892		1.09309213		2.94173468		-0.00046133		-0.00032063		 0.00026547
O		0.85394989		12.52708333		5.19514483		 0.00046133		 0.00032063		-0.00026547
O		2.50953216		3.62092475		-0.14483719		 0.00008875		-0.00009434		 0.00085764
O		2.57986715		10.34707454		-0.41388323		-0.00008875		 0.00009434		-0.00085764
O		0.03516775		10.43101249		3.92360307		-0.00008875		-0.00009434		 0.00085764
O		5.05423207		3.18916399		4.21327695		 0.00008875		 0.00009434		-0.00085764
O		4.02780191		5.78973585		-0.23158907		-0.00019003		-0.00027084		 0.00004309
O		1.06159791		8.17826396		-0.32713084		 0.00019003		 0.00027084		-0.00004309
O		3.60629782		12.59982358		3.83684967		 0.00019003		-0.00027084		 0.00004309
O		1.48310200		1.02035189		4.30002882		-0.00019003		 0.00027084		-0.00004309
O		1.81386210		0.97033174		1.21690603		-0.00011145		-0.00010263		-0.00020791
O		3.27553773		12.64984372		6.91997398		 0.00011145		 0.00010263		 0.00020791
O		3.27553773		12.89704962		0.73983689		-0.00031026		-0.00027540		-0.00004919
O		1.81386210		0.72312686		7.39704261		 0.00031026		 0.00027540		 0.00004919
O		0.73083781		7.88103894		2.76988295		-0.00031026		 0.00027540		 0.00004919
O		4.35856201		5.73913703		5.36699706		 0.00031026		-0.00027540		-0.00004919
O		4.35856201		5.83975599		2.85153372		-0.00011145		 0.00010263		 0.00020791
O		0.73083781		7.78042049		5.28534477		 0.00011145		-0.00010263		-0.00020791
O		5.00058979		3.46246680		1.24362589		-0.00008452		 0.00002332		 0.00002078
O		0.08881003		10.15770866		6.89325361		 0.00008452		-0.00002332		-0.00002078
O		0.08881003		10.39478563		0.96633300		 0.00017345		 0.00033795		 0.00013309
O		5.00058979		3.22539085		7.17054600		-0.00017345		-0.00033795		-0.00013309
O		2.63350994		10.38330242		2.54338685		 0.00017345		-0.00033795		-0.00013309
O		2.45588988		3.23687406		5.59349266		-0.00017345		 0.00033795		 0.00013309
O		2.45588988		3.34762093		2.82481386		-0.00008452		-0.00002332		-0.00002078
O		2.63350994		10.27255555		5.31206564		 0.00008452		 0.00002332		 0.00002078
O		0.99589376		12.86159431		-0.51446402		 0.00044407		 0.00021924		 0.00015645
O		4.09350606		1.10640498		-0.04425589		-0.00044407		-0.00021924		-0.00015645
O		1.54880615		5.70368275		4.11269565		-0.00044407		 0.00021924		 0.00015645
O		3.54059367		7.91649272		4.02418386		 0.00044407		-0.00021924		-0.00015645
H		4.69802498		4.18897761		0.77440409		-0.00045544		 0.00041009		 0.00073191
H		0.39137485		9.43119786		7.36247592		 0.00045544		-0.00041009		-0.00073191
H		0.39137485		9.70354385		0.55382085		-0.00004600		-0.00042053		-0.00012693
H		4.69802498		3.91663212		7.58305763		 0.00004600		 0.00042053		 0.00012693
H		2.93607476		11.07454368		2.95589797		-0.00004600		 0.00042053		 0.00012693
H		2.15332506		2.54563178		5.18098103		 0.00004600		-0.00042053		-0.00012693
H		2.15332506		2.62111012		3.29403566		-0.00045544		-0.00041009		-0.00073191
H		2.93607476		10.99906686		4.84284385		 0.00045544		 0.00041009		 0.00073191
