# total energy = -2069.16007074 eV	

CRYSTAL	
PRIMVEC	
		2.93438953		0.00000000		0.00000000	
		-1.46719476		2.54125588		0.00000000	
		0.00000000		0.00000000		2.67743609	
PRIMCOORD
   2 1	
Mg		0.00000000		0.00000000		0.00000000		-0.00000002		 0.00000005		 0.00000004	
O		0.00000000		1.69417127		1.33871834		 0.00000002		-0.00000005		-0.00000004	
