# total energy = -2069.10815123 eV	

CRYSTAL	
PRIMVEC	
		3.00060958		0.00000000		0.00000000	
		-1.50030332		2.59860605		0.00000000	
		0.00000000		0.00000000		2.72580767	
PRIMCOORD
   2 1	
Mg		0.00000000		0.00000000		0.00000000		-0.00000000		 0.00000003		-0.00000004	
O		0.00000000		1.73240286		1.36290266		0.00000000		-0.00000003		 0.00000004	
