# total energy = -13384.2629914 eV	

CRYSTAL	
PRIMVEC	
		3.20565017		0.00000000		0.00000000	
		-1.60282509		2.64397538		0.00000000	
		0.00000000		0.00000000		20.12500125	
PRIMCOORD
   18 1	
O		0.00000000		0.00000000		6.26491337		0.00000000		 0.00028331		 0.00010256	
O		0.00000000		0.00000000		13.86008789		0.00000000		-0.00028331		-0.00010256	
O		1.60282509		0.88132491		8.61752560		0.00000000		-0.00032486		-0.00000490	
O		0.00000000		1.76265015		11.50747565		0.00000000		 0.00032486		 0.00000490	
O		1.60282509		0.88132491		1.44497502		0.00000000		 0.00051852		-0.00072635	
O		0.00000000		1.76265015		18.68002591		0.00000000		-0.00051852		 0.00072635	
O		0.00000000		1.76265015		3.79758822		0.00000000		-0.00028120		-0.00066600	
O		1.60282509		0.88132491		16.32741303		0.00000000		 0.00028120		 0.00066600	
H		1.60282509		0.88132491		9.60767561		0.00000000		-0.00055270		 0.00000869	
H		0.00000000		1.76265015		10.51732564		0.00000000		 0.00055270		-0.00000869	
H		1.60282509		0.88132491		0.45482502		0.00000000		 0.00040082		-0.00030736	
H		0.00000000		1.76265015		19.67017591		0.00000000		-0.00040082		 0.00030736	
Mg		0.00000000		1.76265015		7.50461330		0.00000000		-0.00040876		-0.00084962	
Mg		1.60282509		0.88132491		12.62038763		0.00000000		 0.00040876		 0.00084962	
Mg		0.00000000		0.00000000		2.55788829		0.00000000		 0.00048383		 0.00040144	
Mg		0.00000000		0.00000000		17.56711393		0.00000000		-0.00048383		-0.00040144	
Mg		1.60282509		0.88132491		5.03326218		-0.00000000		-0.00004063		-0.00028131	
Mg		0.00000000		1.76265015		15.09173779		0.00000000		 0.00004063		 0.00028131	
