# total energy = -9214.70842811 eV	

CRYSTAL	
PRIMVEC	
		5.32599971		0.00000000		0.00000000	
		-2.66299986		4.95838323		0.00000000	
		0.00000000		0.00000000		7.28800214	
PRIMCOORD
   18 1	
Mg		1.76716670		0.00000000		3.31603985		-0.00049756		-0.00000000		-0.00041012	
Mg		-0.88358282		1.64519172		3.31603985		 0.00047622		 0.00047515		-0.00036557	
Mg		1.77941704		3.31319257		3.31603985		 0.00047622		-0.00047515		-0.00036557	
Si		0.00000000		3.30558971		0.53931180		 0.00001955		 0.00000316		 0.00020527	
Si		2.66299986		1.65279512		0.53931180		 0.00001955		-0.00000316		 0.00020527	
H		3.10505783		0.00000000		5.33481584		-0.00011508		0.00000000		 0.00040210	
H		-1.55252892		2.89073907		5.33481584		 0.00001724		-0.00017732		 0.00016167	
H		1.11047094		2.06764683		5.33481584		 0.00001724		 0.00017732		 0.00016167	
H		0.00000000		0.00000000		1.43573613		 0.00013892		-0.00000000		 0.00032921	
O		0.00000000		3.30558971		2.12153689		-0.00008363		-0.00006783		 0.00015441	
O		2.66299986		1.65279512		2.12153689		-0.00008363		 0.00006783		 0.00015441	
O		2.70028185		0.00000000		7.22969575		 0.00009960		0.00000000		 0.00023691	
O		-1.35014093		2.51390169		7.22969575		-0.00011972		 0.00021075		 0.00021755	
O		1.31285893		2.44448367		7.22969575		-0.00011972		-0.00021075		 0.00021755	
O		3.53646381		0.00000000		4.28534357		 0.00036885		-0.00000000		-0.00073467	
O		-1.76823190		3.29236792		4.28534357		-0.00036942		 0.00016609		-0.00044836	
O		0.89476795		1.66601798		4.28534357		-0.00036942		-0.00016609		-0.00044836	
O		0.00000000		0.00000000		2.21555197		 0.00012482		0.00000000		 0.00032663	
