# total energy = -38097.5448389 eV	

CRYSTAL	
PRIMVEC	
		5.69209984		0.00000000		0.00000000	
		0.00000000		11.46000138		-0.45840188	
		0.00000000		-0.33011902		8.25299833	
PRIMCOORD
   58 1	
O		1.53572911		1.08065825		8.13806687		-0.00040054		-0.00024673		 0.00003258	
O		4.15637074		10.04922183		-0.34346586		 0.00040054		 0.00024673		-0.00003258	
O		4.15637074		3.99379013		8.02154104		 0.00027999		 0.00061637		 0.00009592	
O		1.53572911		7.13608995		-0.22694117		-0.00027999		-0.00061637		-0.00009592	
O		1.53572911		10.04922183		-0.34346586		-0.00040054		 0.00024673		-0.00003258	
O		4.15637074		1.08065825		8.13806687		 0.00040054		-0.00024673		 0.00003258	
O		4.15637074		7.13608995		-0.22694117		 0.00027999		-0.00061637		-0.00009592	
O		1.53572911		3.99379013		8.02154104		-0.00027999		 0.00061637		 0.00009592	
O		2.84604992		5.36023107		6.01157976		0.00000000		-0.00058831		 0.00003844	
O		2.84604992		5.76964901		1.78302011		0.00000000		 0.00058831		-0.00003844	
O		2.84604992		-0.12910878		6.23115365		0.00000000		 0.00044151		-0.00001760	
O		2.84604992		11.25898886		1.56344679		0.00000000		-0.00044151		 0.00001760	
O		0.00000000		2.62836979		5.80114966		0.00000000		 0.00005739		 0.00050440	
O		0.00000000		8.50150972		1.99345021		0.00000000		-0.00005739		-0.00050440	
O		0.00000000		2.79280317		1.69033109		0.00000000		 0.00010644		-0.00036116	
O		0.00000000		8.33707691		6.10426878		0.00000000		-0.00010644		 0.00036116	
O		2.84604992		8.35774265		5.58763103		0.00000000		 0.00011040		-0.00015754	
O		2.84604992		2.77213687		2.20696884		0.00000000		-0.00011040		 0.00015754	
O		2.84604992		8.52343000		1.44545013		0.00000000		-0.00002199		-0.00017809	
O		2.84604992		2.60645009		6.34914974		0.00000000		 0.00002199		 0.00017809	
O		0.00000000		11.25529070		1.65588023		0.00000000		-0.00009416		-0.00029555	
O		0.00000000		-0.12541119		6.13871964		0.00000000		 0.00009416		 0.00029555	
O		0.00000000		5.76595199		1.87545412		0.00000000		-0.00004154		-0.00010629	
O		0.00000000		5.36392866		5.91914689		0.00000000		 0.00004154		 0.00010629	
O		4.38177903		6.97571788		3.78236676		 0.00028849		 0.00013063		 0.00020730	
O		1.31032081		4.15416163		4.01223368		-0.00028849		-0.00013063		-0.00020730	
O		1.31032081		9.88884977		3.66584094		-0.00019222		 0.00038554		 0.00004254	
O		4.38177903		1.24102974		4.12875893		 0.00019222		-0.00038554		-0.00004254	
O		4.38177903		4.15416163		4.01223368		 0.00028849		-0.00013063		-0.00020730	
O		1.31032081		6.97571788		3.78236676		-0.00028849		 0.00013063		 0.00020730	
O		1.31032081		1.24102974		4.12875893		-0.00019222		-0.00038554		-0.00004254	
O		4.38177903		9.88884977		3.66584094		 0.00019222		 0.00038554		 0.00004254	
H		2.84604992		8.39973384		4.53785015		0.00000000		 0.00017030		-0.00005859	
H		2.84604992		2.73014568		3.25675086		0.00000000		-0.00017030		 0.00005859	
H		0.00000000		2.75081085		2.74011311		0.00000000		 0.00022825		-0.00043468	
H		0.00000000		8.37906867		5.05448676		0.00000000		-0.00022825		 0.00043468	
Mg		2.84604992		5.56494004		3.89729994		0.00000000		0.00000000		0.00000000	
Mg		2.84604992		-0.16506008		4.12649974		0.00000000		0.00000000		0.00000000	
Mg		0.00000000		0.00000000		0.00000000		0.00000000		0.00000000		0.00000000	
Mg		0.00000000		5.73000012		-0.22919980		0.00000000		0.00000000		0.00000000	
Mg		1.42302496		1.36601403		2.00530799		-0.00013988		 0.00039951		-0.00037575	
Mg		4.26907488		9.76386548		5.78929188		 0.00013988		-0.00039951		 0.00037575	
Mg		4.26907488		4.19892601		1.89199194		 0.00034224		 0.00004462		-0.00015917	
Mg		1.42302496		6.93095407		5.90260793		-0.00034224		-0.00004462		 0.00015917	
Mg		1.42302496		9.76386548		5.78929188		-0.00013988		-0.00039951		 0.00037575	
Mg		4.26907488		1.36601403		2.00530799		 0.00013988		 0.00039951		-0.00037575	
Mg		4.26907488		6.93095407		5.90260793		 0.00034224		-0.00004462		 0.00015917	
Mg		1.42302496		4.19892601		1.89199194		-0.00034224		 0.00004462		-0.00015917	
Mg		0.00000000		2.54475114		7.89163480		0.00000000		-0.00007034		-0.00033849	
Mg		0.00000000		8.58512894		-0.09703493		0.00000000		 0.00007034		 0.00033849	
Si		2.84604992		7.06785362		0.67804578		0.00000000		 0.00001199		-0.00041841	
Si		2.84604992		4.06202589		7.11655352		0.00000000		-0.00001199		 0.00041841	
Si		2.84604992		10.04516166		0.55895396		0.00000000		-0.00028198		-0.00031416	
Si		2.84604992		1.08471785		7.23564705		0.00000000		 0.00028198		 0.00031416	
Si		0.00000000		1.17279399		5.03374588		0.00000000		-0.00013047		 0.00024500	
Si		0.00000000		9.95708552		2.76085399		0.00000000		 0.00013047		-0.00024500	
Si		0.00000000		4.15010203		4.91465406		0.00000000		-0.00014682		 0.00024038	
Si		0.00000000		6.97977805		2.87994695		0.00000000		 0.00014682		-0.00024038	
