# total energy = -10831.881711 eV	

CRYSTAL	
PRIMVEC	
		3.04481944		0.00000000		0.00000000	
		-1.52240972		2.63689111		0.00000000	
		0.00000000		0.00000000		14.87268839	
PRIMCOORD
   13 1	
Mg		1.52241033		0.87896411		2.44368691		-0.00000001		-0.00000001		-0.00076080	
Mg		0.00000000		1.75792821		12.42900360		-0.00000006		-0.00000001		 0.00075977	
Mg		0.00000000		0.00000000		0.00000000		-0.00000001		 0.00000004		-0.00000045	
Mg		0.00000000		1.75792821		4.89686215		-0.00000002		-0.00000000		 0.00014226	
Mg		1.52241033		0.87896411		9.97582684		-0.00000003		 0.00000001		-0.00014112	
O		1.52241033		0.87896441		13.65033146		 0.00000001		-0.00000005		 0.00025058	
O		0.00000000		1.75792791		1.22235874		 0.00000001		 0.00000002		-0.00024971	
O		1.52241033		0.87896411		5.96552183		 0.00000001		 0.00000001		 0.00017756	
O		0.00000000		1.75792821		8.90717140		-0.00000000		-0.00000002		-0.00019784	
O		0.00000000		0.00000000		11.20428475		 0.00000009		 0.00000005		 0.00077102	
O		0.00000000		0.00000000		3.66840485		 0.00000001		-0.00000003		-0.00077038	
H		1.52241033		0.87896411		6.92689085		-0.00000000		-0.00000000		 0.00047269	
H		0.00000000		1.75792821		7.94579208		0.00000000		0.00000000		-0.00045358	
