# total energy = -10831.7637713 eV	

CRYSTAL	
PRIMVEC	
		2.97021405		0.00000000		0.00000000	
		-1.48510702		2.57227919		0.00000000	
		0.00000000		0.00000000		14.22079623	
PRIMCOORD
   13 1	
Mg		1.48510672		0.85742660		2.39130031		-0.00000004		0.00000000		-0.00008906	
Mg		0.00000000		1.71485350		11.82948925		 0.00000011		 0.00000006		 0.00009459	
Mg		0.00000000		0.00000000		-0.00000546		 0.00000002		 0.00000003		 0.00000534	
Mg		0.00000000		1.71485350		4.79566187		-0.00000030		-0.00000021		 0.00020684	
Mg		1.48510642		0.85742690		9.42513527		 0.00000032		 0.00000021		-0.00021242	
O		1.48510733		0.85742720		13.02540773		-0.00000009		-0.00000004		-0.00031249	
O		0.00000000		1.71485350		1.19538880		-0.00000002		-0.00000006		 0.00030390	
O		1.48510642		0.85742660		5.86597642		 0.00000018		 0.00000012		-0.00013087	
O		0.00000000		1.71485410		8.35480192		-0.00000023		-0.00000016		 0.00023738	
O		0.00000000		0.00000000		10.62890087		-0.00000016		-0.00000008		 0.00026849	
O		0.00000000		0.00000000		3.59189020		 0.00000020		 0.00000013		-0.00027016	
H		1.48510733		0.85742690		6.82643190		-0.00000001		-0.00000001		 0.00021560	
H		0.00000000		1.71485350		7.39440072		 0.00000001		 0.00000001		-0.00031712	
