# total energy = -38090.7283898 eV	

CRYSTAL	
PRIMVEC	
		5.69210183		0.00000000		0.91073883	
		0.00000000		11.46000105		0.00000000	
		1.32047936		0.00000000		8.25299743	
PRIMCOORD
   58 1	
O		2.84683258		1.40843407		8.44012054		-0.00007106		 0.00008718		 0.00012152	
O		4.16574688		10.05156525		0.72361573		 0.00007106		-0.00008718		-0.00012152	
O		5.46747548		4.32156588		8.85942264		-0.00000953		 0.00001997		 0.00006153	
O		1.54510398		7.13843344		0.30431305		 0.00000953		-0.00001997		-0.00006153	
O		1.54510398		10.05156525		0.30431305		 0.00000953		 0.00001997		-0.00006153	
O		5.46747548		1.40843407		8.85942264		-0.00000953		-0.00001997		 0.00006153	
O		4.16574688		7.13843344		0.72361573		 0.00007106		 0.00008718		-0.00012152	
O		2.84683258		4.32156588		8.44012054		-0.00007106		-0.00008718		 0.00012152	
O		3.84380484		5.60966951		6.69133493		 0.00009147		 0.00024548		-0.00028949	
O		3.16877462		5.85032981		2.47240076		-0.00009147		-0.00024548		 0.00028949	
O		3.84380484		0.12032986		6.69133493		 0.00009147		-0.00024548		-0.00028949	
O		3.16877462		11.33966946		2.47240076		-0.00009147		 0.00024548		 0.00028949	
O		0.94652022		2.86499997		5.91574995		-0.00031100		0.00000000		 0.00021478	
O		0.37395971		8.59499935		2.33724979		 0.00031100		0.00000000		-0.00021478	
O		0.28878925		2.86499997		1.80493067		 0.00016391		0.00000000		 0.00034278	
O		1.03169068		8.59499935		6.44806850		-0.00016391		0.00000000		-0.00034278	
O		3.79507869		8.59499935		6.38679880		 0.00000617		-0.00000000		 0.00002368	
O		3.21750077		2.86499997		2.77693689		-0.00000617		-0.00000000		-0.00002368	
O		3.13232973		8.59499935		2.24461776		 0.00008057		-0.00000000		-0.00034176	
O		3.88024973		2.86499997		6.91911792		-0.00008057		-0.00000000		 0.00034176	
O		0.33751483		11.33966946		2.10946680		-0.00010359		 0.00007052		 0.00023294	
O		0.98296511		0.12032986		6.14353352		 0.00010359		-0.00007052		-0.00023294	
O		0.33751483		5.85032981		2.10946680		-0.00010359		-0.00007052		 0.00023294	
O		0.98296511		5.60966951		6.14353352		 0.00010359		 0.00007052		-0.00023294	
O		5.03264267		7.13843344		4.76898893		 0.00004991		-0.00023800		 0.00025185	
O		1.97993680		4.32156588		4.39474791		-0.00004991		 0.00023800		-0.00025185	
O		1.96118604		10.05156525		4.27755451		-0.00016950		-0.00005945		 0.00037067	
O		5.05139400		1.40843407		4.88618060		 0.00016950		 0.00005945		-0.00037067	
O		5.05139400		4.32156588		4.88618060		 0.00016950		-0.00005945		-0.00037067	
O		1.96118604		7.13843344		4.27755451		-0.00016950		 0.00005945		 0.00037067	
O		1.97993680		1.40843407		4.39474791		-0.00004991		-0.00023800		-0.00025185	
O		5.03264267		10.05156525		4.76898893		 0.00004991		 0.00023800		 0.00025185	
H		3.62711390		8.59499935		5.33701797		-0.00033992		0.00000000		 0.00017780	
H		3.38546556		2.86499997		3.82671887		 0.00033992		0.00000000		-0.00017780	
H		0.45675405		2.86499997		2.85471265		 0.00017368		0.00000000		 0.00088693	
H		0.86372589		8.59499935		5.39828651		-0.00017368		0.00000000		-0.00088693	
Mg		3.50629002		5.72999995		4.58186756		0.00000000		0.00000000		0.00000000	
Mg		3.50629002		0.00000000		4.58186756		0.00000000		0.00000000		0.00000000	
Mg		0.00000000		0.00000000		0.00000000		0.00000000		-0.00000000		0.00000000	
Mg		0.00000000		5.72999995		0.00000000		0.00000000		-0.00000000		0.00000000	
Mg		1.75314472		1.44854403		2.29093378		-0.00006067		 0.00003703		-0.00020744	
Mg		5.25943474		10.01145529		6.87280191		 0.00006067		-0.00003703		 0.00020744	
Mg		4.59919448		4.28145592		2.74630204		-0.00015890		 0.00026576		 0.00019177	
Mg		2.41338498		7.17854340		6.41743365		 0.00015890		-0.00026576		-0.00019177	
Mg		2.41338498		10.01145529		6.41743365		 0.00015890		 0.00026576		-0.00019177	
Mg		4.59919448		1.44854403		2.74630204		-0.00015890		-0.00026576		 0.00019177	
Mg		5.25943474		7.17854340		6.87280191		 0.00006067		 0.00003703		 0.00020744	
Mg		1.75314472		4.28145592		2.29093378		-0.00006067		-0.00003703		-0.00020744	
Mg		1.28099773		2.86499997		8.00623483		 0.00007679		-0.00000000		-0.00016542	
Mg		0.03948220		8.59499935		0.24676491		-0.00007679		-0.00000000		 0.00016542	
Si		3.00001778		7.10634536		1.41766765		-0.00031836		-0.00023451		 0.00021476	
Si		4.01256168		4.35365396		7.74606862		 0.00031836		 0.00023451		-0.00021476	
Si		3.00001778		10.08365333		1.41766765		-0.00031836		 0.00023451		 0.00021476	
Si		4.01256168		1.37634599		7.74606862		 0.00031836		-0.00023451		-0.00021476	
Si		0.81420770		1.37634599		5.08879983		-0.00018789		 0.00012937		 0.00000638	
Si		0.50627224		10.08365333		3.16419991		 0.00018789		-0.00012937		-0.00000638	
Si		0.81420770		4.35365396		5.08879983		-0.00018789		-0.00012937		 0.00000638	
Si		0.50627224		7.10634536		3.16419991		 0.00018789		 0.00012937		-0.00000638	
