# total energy = -38090.72839 eV	

CRYSTAL	
PRIMVEC	
		5.69210183		0.00000000		-0.91073883	
		0.00000000		11.46000105		0.00000000	
		-1.32047936		0.00000000		8.25299743	
PRIMCOORD
   58 1	
O		0.22462405		1.40843407		7.94868669		-0.00002182		-0.00001465		 0.00008549	
O		4.14699554		10.05156525		-0.60642290		 0.00002182		 0.00001465		-0.00008549	
O		2.84526694		4.32156588		7.52938459		 0.00007741		-0.00009797		 0.00012528	
O		1.52635265		7.13843344		-0.18712022		-0.00007741		 0.00009797		-0.00012528	
O		1.52635265		10.05156525		-0.18712022		-0.00007741		-0.00009797		-0.00012528	
O		2.84526694		1.40843407		7.52938459		 0.00007741		 0.00009797		 0.00012528	
O		4.14699554		7.13843344		-0.60642290		 0.00002182		-0.00001465		-0.00008549	
O		0.22462405		4.32156588		7.94868669		-0.00002182		 0.00001465		 0.00008549	
O		1.84829468		5.60966951		5.78059898		-0.00009552		 0.00024432		-0.00028488	
O		2.52332491		5.85032981		1.56166481		 0.00009552		-0.00024432		 0.00028488	
O		1.84829468		0.12032986		5.78059898		-0.00009552		-0.00024432		-0.00028488	
O		2.52332491		11.33966946		1.56166481		 0.00009552		 0.00024432		 0.00028488	
O		-0.94652022		2.86499997		5.91574995		 0.00031618		0.00000000		 0.00021786	
O		-0.37395971		8.59499935		2.33724979		-0.00031618		0.00000000		-0.00021786	
O		-0.28878925		2.86499997		1.80493067		-0.00016956		0.00000000		 0.00035864	
O		-1.03169068		8.59499935		6.44806850		 0.00016956		-0.00000000		-0.00035864	
O		1.89702083		8.59499935		5.47606285		-0.00000858		0.00000000		 0.00006106	
O		2.47459876		2.86499997		1.86620094		 0.00000858		0.00000000		-0.00006106	
O		2.55976980		8.59499935		1.33388182		-0.00007952		0.00000000		-0.00035208	
O		1.81184979		2.86499997		6.00838198		 0.00007952		0.00000000		 0.00035208	
O		-0.33751483		11.33966946		2.10946680		 0.00010612		 0.00006855		 0.00023118	
O		-0.98296511		0.12032986		6.14353352		-0.00010612		-0.00006855		-0.00023118	
O		-0.33751483		5.85032981		2.10946680		 0.00010612		-0.00006855		 0.00023118	
O		-0.98296511		5.60966951		6.14353352		-0.00010612		 0.00006855		-0.00023118	
O		3.73091407		7.13843344		3.36681856		 0.00017145		 0.00005551		 0.00036036	
O		0.64070610		4.32156588		3.97544465		-0.00017145		-0.00005551		-0.00036036	
O		0.65945686		10.05156525		3.85825298		-0.00005036		 0.00023900		 0.00025700	
O		3.71216273		1.40843407		3.48401196		 0.00005036		-0.00023900		-0.00025700	
O		3.71216273		4.32156588		3.48401196		 0.00005036		 0.00023900		-0.00025700	
O		0.65945686		7.13843344		3.85825298		-0.00005036		-0.00023900		 0.00025700	
O		0.64070610		1.40843407		3.97544465		-0.00017145		 0.00005551		-0.00036036	
O		3.73091407		10.05156525		3.36681856		 0.00017145		-0.00005551		 0.00036036	
H		2.06498563		8.59499935		4.42628202		 0.00032851		0.00000000		 0.00015977	
H		2.30663396		2.86499997		2.91598293		-0.00032851		0.00000000		-0.00015977	
H		-0.45675405		2.86499997		2.85471265		-0.00017130		0.00000000		 0.00088146	
H		-0.86372589		8.59499935		5.39828651		 0.00017130		0.00000000		-0.00088146	
Mg		2.18581008		5.72999995		3.67113161		0.00000000		0.00000000		0.00000000	
Mg		2.18581008		0.00000000		3.67113161		0.00000000		0.00000000		0.00000000	
Mg		0.00000000		0.00000000		0.00000000		0.00000000		0.00000000		0.00000000	
Mg		0.00000000		5.72999995		0.00000000		0.00000000		0.00000000		0.00000000	
Mg		1.09290504		1.44854403		1.83556609		 0.00015101		-0.00026819		 0.00018958	
Mg		3.27871455		10.01145529		5.50669770		-0.00015101		 0.00026819		-0.00018958	
Mg		3.93895480		4.28145592		1.38019783		 0.00005784		-0.00003726		-0.00020071	
Mg		0.43266479		7.17854340		5.96206596		-0.00005784		 0.00003726		 0.00020071	
Mg		0.43266479		10.01145529		5.96206596		-0.00005784		-0.00003726		 0.00020071	
Mg		3.93895480		1.44854403		1.38019783		 0.00005784		 0.00003726		-0.00020071	
Mg		3.27871455		7.17854340		5.50669770		-0.00015101		-0.00026819		-0.00018958	
Mg		1.09290504		4.28145592		1.83556609		 0.00015101		 0.00026819		 0.00018958	
Mg		-1.28099773		2.86499997		8.00623483		-0.00006579		-0.00000000		-0.00017313	
Mg		-0.03948220		8.59499935		0.24676491		 0.00006579		0.00000000		 0.00017313	
Si		2.69208175		7.10634536		0.50693170		 0.00029771		-0.00021861		 0.00025150	
Si		1.67953784		4.35365396		6.83533267		-0.00029771		 0.00021861		-0.00025150	
Si		2.69208175		10.08365333		0.50693170		 0.00029771		 0.00021861		 0.00025150	
Si		1.67953784		1.37634599		6.83533267		-0.00029771		-0.00021861		-0.00025150	
Si		-0.81420770		1.37634599		5.08879983		 0.00019219		 0.00012167		 0.00000300	
Si		-0.50627224		10.08365333		3.16419991		-0.00019219		-0.00012167		-0.00000300	
Si		-0.81420770		4.35365396		5.08879983		 0.00019219		-0.00012167		 0.00000300	
Si		-0.50627224		7.10634536		3.16419991		-0.00019219		 0.00012167		-0.00000300	
