# total energy = -38094.6749883 eV	

CRYSTAL	
PRIMVEC	
		5.69209829		0.00000000		-0.45536672	
		0.00000000		11.46000062		0.00000000	
		-0.66024035		0.00000000		8.25300147	
PRIMCOORD
   58 1	
O		0.88017599		1.40843394		8.07154572		-0.00029600		 0.00007064		 0.00004708	
O		4.15168366		10.05156554		-0.27391383		 0.00029600		-0.00007064		-0.00004708	
O		3.50081904		4.32156580		7.86189373		 0.00035506		 0.00073232		-0.00022928	
O		1.53104119		7.13843367		-0.06426184		-0.00035506		-0.00073232		 0.00022928	
O		1.53104119		10.05156554		-0.06426184		-0.00035506		 0.00073232		 0.00022928	
O		3.50081904		1.40843394		7.86189373		 0.00035506		-0.00073232		-0.00022928	
O		4.15168366		7.13843367		-0.27391383		 0.00029600		 0.00007064		-0.00004708	
O		0.88017599		4.32156580		8.07154572		-0.00029600		-0.00007064		 0.00004708	
O		2.34717290		5.60966974		6.00828308		 0.00020960		-0.00044151		 0.00008910	
O		2.68468675		5.85032973		1.78934881		-0.00020960		 0.00044151		-0.00008910	
O		2.34717290		0.12032999		6.00828308		 0.00020960		 0.00044151		 0.00008910	
O		2.68468675		11.33966948		1.78934881		-0.00020960		-0.00044151		-0.00008910	
O		-0.47325990		2.86499987		5.91574962		-0.00007587		0.00000000		-0.00023590	
O		-0.18697987		8.59499961		2.33725014		 0.00007587		0.00000000		 0.00023590	
O		-0.14439428		2.86499987		1.80493104		 0.00058228		0.00000000		-0.00087794	
O		-0.51584607		8.59499961		6.44806872		-0.00058228		-0.00000000		 0.00087794	
O		2.37153584		8.59499961		5.70374670		-0.00010620		0.00000000		-0.00013931	
O		2.66032496		2.86499987		2.09388519		 0.00010620		0.00000000		 0.00013931	
O		2.70290999		8.59499961		1.56156609		-0.00008668		-0.00000000		-0.00039029	
O		2.32894967		2.86499987		6.23606580		 0.00008668		0.00000000		 0.00039029	
O		-0.16875721		11.33966948		2.10946685		 0.00008111		-0.00025486		 0.00006982	
O		-0.49148313		0.12032999		6.14353405		-0.00008111		 0.00025486		-0.00006982	
O		-0.16875721		5.85032973		2.10946685		 0.00008111		 0.00025486		 0.00006982	
O		-0.49148313		5.60966974		6.14353405		-0.00008111		-0.00025486		-0.00006982	
O		4.05634588		7.13843367		3.71736220		-0.00006315		 0.00016358		 0.00039209	
O		0.97551378		4.32156580		4.08027083		 0.00006315		-0.00016358		-0.00039209	
O		0.98488892		10.05156554		3.96307807		-0.00008311		 0.00030110		-0.00036409	
O		4.04697073		1.40843394		3.83455382		 0.00008311		-0.00030110		 0.00036409	
O		4.04697073		4.32156580		3.83455382		 0.00008311		 0.00030110		 0.00036409	
O		0.98488892		7.13843367		3.96307807		-0.00008311		-0.00030110		-0.00036409	
O		0.97551378		1.40843394		4.08027083		 0.00006315		 0.00016358		-0.00039209	
O		4.05634588		10.05156554		3.71736220		-0.00006315		-0.00016358		 0.00039209	
H		2.45551815		8.59499961		4.65396609		-0.00042563		0.00000000		 0.00028206	
H		2.57634208		2.86499987		3.14366694		 0.00042563		0.00000000		-0.00028206	
H		-0.22837716		2.86499987		2.85471279		-0.00065828		0.00000000		-0.00033681	
H		-0.43186319		8.59499961		5.39828697		 0.00065828		0.00000000		 0.00033681	
Mg		2.51593011		5.72999974		3.89881566		0.00000000		0.00000000		0.00000000	
Mg		2.51593011		0.00000000		3.89881566		0.00000000		0.00000000		0.00000000	
Mg		0.00000000		0.00000000		0.00000000		0.00000000		0.00000000		0.00000000	
Mg		0.00000000		5.72999974		0.00000000		0.00000000		0.00000000		0.00000000	
Mg		1.25796506		1.44854412		1.94940812		-0.00031498		-0.00031100		-0.00075246	
Mg		3.77389517		10.01145592		5.84822378		 0.00031498		 0.00031100		 0.00075246	
Mg		4.10401477		4.28145618		1.72172418		 0.00021276		-0.00052207		-0.00045393	
Mg		0.92784488		7.17854386		6.07590771		-0.00021276		 0.00052207		 0.00045393	
Mg		0.92784488		10.01145592		6.07590771		-0.00021276		-0.00052207		 0.00045393	
Mg		4.10401477		1.44854412		1.72172418		 0.00021276		 0.00052207		-0.00045393	
Mg		3.77389517		7.17854386		5.84822378		 0.00031498		-0.00031100		 0.00075246	
Mg		1.25796506		4.28145618		1.94940812		-0.00031498		 0.00031100		-0.00075246	
Mg		-0.64049875		2.86499987		8.00623490		-0.00031798		0.00000000		-0.00053475	
Mg		-0.01974103		8.59499961		0.24676485		 0.00031798		0.00000000		 0.00053475	
Si		2.76906593		7.10634587		0.73461624		-0.00027031		 0.00006580		-0.00057558	
Si		2.26279373		4.35365418		7.06301679		 0.00027031		-0.00006580		 0.00057558	
Si		2.76906593		10.08365392		0.73461624		-0.00027031		-0.00006580		-0.00057558	
Si		2.26279373		1.37634613		7.06301679		 0.00027031		 0.00006580		 0.00057558	
Si		-0.40710396		1.37634613		5.08879977		-0.00024944		-0.00001860		-0.00055864	
Si		-0.25313582		10.08365392		3.16419999		 0.00024944		 0.00001860		 0.00055864	
Si		-0.40710396		4.35365418		5.08879977		-0.00024944		 0.00001860		-0.00055864	
Si		-0.25313582		7.10634587		3.16419999		 0.00024944		-0.00001860		 0.00055864	
