# total energy = -38094.6749883 eV	

CRYSTAL	
PRIMVEC	
		5.69209829		0.00000000		0.45536672	
		0.00000000		11.46000062		0.00000000	
		0.66024035		0.00000000		8.25300147	
PRIMCOORD
   58 1	
O		2.19128096		1.40843394		8.31726160		-0.00035504		-0.00073226		-0.00022932	
O		4.16105881		10.05156554		0.39110602		 0.00035504		 0.00073226		 0.00022932	
O		4.81192401		4.32156580		8.52691359		 0.00029604		-0.00007064		 0.00004710	
O		1.54041577		7.13843367		0.18145403		-0.00029604		 0.00007064		-0.00004710	
O		1.54041577		10.05156554		0.18145403		-0.00029604		-0.00007064		-0.00004710	
O		4.81192401		1.40843394		8.52691359		 0.00029604		 0.00007064		 0.00004710	
O		4.16105881		7.13843367		0.39110602		 0.00035504		-0.00073226		 0.00022932	
O		2.19128096		4.32156580		8.31726160		-0.00035504		 0.00073226		-0.00022932	
O		3.34492710		5.60966974		6.46365094		-0.00020962		-0.00044153		 0.00008909	
O		3.00741268		5.85032973		2.24471667		 0.00020962		 0.00044153		-0.00008909	
O		3.34492710		0.12032999		6.46365094		-0.00020962		 0.00044153		 0.00008909	
O		3.00741268		11.33966948		2.24471667		 0.00020962		-0.00044153		-0.00008909	
O		0.47325990		2.86499987		5.91574962		 0.00007588		0.00000000		-0.00023595	
O		0.18697987		8.59499961		2.33725014		-0.00007588		0.00000000		 0.00023595	
O		0.14439428		2.86499987		1.80493104		-0.00058229		0.00000000		-0.00087793	
O		0.51584607		8.59499961		6.44806872		 0.00058229		0.00000000		 0.00087793	
O		3.32056474		8.59499961		6.15911513		 0.00010616		-0.00000000		-0.00013929	
O		3.03177618		2.86499987		2.54925306		-0.00010616		0.00000000		 0.00013929	
O		2.98919001		8.59499961		2.01693396		 0.00008671		0.00000000		-0.00039028	
O		3.36314976		2.86499987		6.69143366		-0.00008671		0.00000000		 0.00039028	
O		0.16875721		11.33966948		2.10946685		-0.00008114		-0.00025488		 0.00006979	
O		0.49148313		0.12032999		6.14353405		 0.00008114		 0.00025488		-0.00006979	
O		0.16875721		5.85032973		2.10946685		-0.00008114		 0.00025488		 0.00006979	
O		0.49148313		5.60966974		6.14353405		 0.00008114		-0.00025488		-0.00006979	
O		4.70721108		7.13843367		4.41844593		 0.00008310		-0.00030107		-0.00036417	
O		1.64512870		4.32156580		4.28992168		-0.00008310		 0.00030107		 0.00036417	
O		1.63575412		10.05156554		4.17273006		 0.00006320		-0.00016357		 0.00039210	
O		4.71658565		1.40843394		4.53563870		-0.00006320		 0.00016357		-0.00039210	
O		4.71658565		4.32156580		4.53563870		-0.00006320		-0.00016357		-0.00039210	
O		1.63575412		7.13843367		4.17273006		 0.00006320		 0.00016357		 0.00039210	
O		1.64512870		1.40843394		4.28992168		-0.00008310		-0.00030107		 0.00036417	
O		4.70721108		10.05156554		4.41844593		 0.00008310		 0.00030107		-0.00036417	
H		3.23658185		8.59499961		5.10933395		 0.00042561		0.00000000		 0.00028205	
H		3.11575792		2.86499987		3.59903481		-0.00042561		0.00000000		-0.00028205	
H		0.22837716		2.86499987		2.85471279		 0.00065829		-0.00000000		-0.00033682	
H		0.43186319		8.59499961		5.39828697		-0.00065829		-0.00000000		 0.00033682	
Mg		3.17616989		5.72999974		4.35418409		0.00000000		0.00000000		0.00000000	
Mg		3.17616989		0.00000000		4.35418409		0.00000000		0.00000000		0.00000000	
Mg		0.00000000		0.00000000		0.00000000		0.00000000		0.00000000		0.00000000	
Mg		0.00000000		5.72999974		0.00000000		0.00000000		0.00000000		0.00000000	
Mg		1.58808523		1.44854412		2.17709205		-0.00021280		 0.00052208		-0.00045392	
Mg		4.76425512		10.01145592		6.53127614		 0.00021280		-0.00052208		 0.00045392	
Mg		4.43413494		4.28145618		2.40477598		 0.00031501		 0.00031095		-0.00075242	
Mg		1.91820483		7.17854386		6.30359164		-0.00031501		-0.00031095		 0.00075242	
Mg		1.91820483		10.01145592		6.30359164		-0.00031501		 0.00031095		 0.00075242	
Mg		4.43413494		1.44854412		2.40477598		 0.00031501		-0.00031095		-0.00075242	
Mg		4.76425512		7.17854386		6.53127614		 0.00021280		 0.00052208		 0.00045392	
Mg		1.58808523		4.28145618		2.17709205		-0.00021280		-0.00052208		-0.00045392	
Mg		0.64049875		2.86499987		8.00623490		 0.00031797		0.00000000		-0.00053468	
Mg		0.01974103		8.59499961		0.24676485		-0.00031797		0.00000000		 0.00053468	
Si		2.92303407		7.10634587		1.18998411		 0.00027030		 0.00006576		-0.00057557	
Si		3.42930570		4.35365418		7.51838465		-0.00027030		-0.00006576		 0.00057557	
Si		2.92303407		10.08365392		1.18998411		 0.00027030		-0.00006576		-0.00057557	
Si		3.42930570		1.37634613		7.51838465		-0.00027030		 0.00006576		 0.00057557	
Si		0.40710396		1.37634613		5.08879977		 0.00024944		-0.00001862		-0.00055866	
Si		0.25313582		10.08365392		3.16419999		-0.00024944		 0.00001862		 0.00055866	
Si		0.40710396		4.35365418		5.08879977		 0.00024944		 0.00001862		-0.00055866	
Si		0.25313582		7.10634587		3.16419999		-0.00024944		-0.00001862		 0.00055866	
