# total energy = -38097.5527682 eV	

CRYSTAL	
PRIMVEC	
		5.69210020		0.00000000		-0.22768378	
		0.00000000		11.46000005		0.00000000	
		-0.33012097		0.00000000		8.25300155	
PRIMCOORD
   58 1	
O		1.20795223		1.40843393		8.13297480		 0.00027698		-0.00011238		-0.00007277	
O		4.15402813		10.05156612		-0.10765874		-0.00027698		 0.00011238		 0.00007277	
O		3.82859494		4.32156609		8.02814900		 0.00062259		 0.00082764		 0.00021049	
O		1.53338486		7.13843396		-0.00283294		-0.00062259		-0.00082764		-0.00021049	
O		1.53338486		10.05156612		-0.00283294		-0.00062259		 0.00082764		-0.00021049	
O		3.82859494		1.40843393		8.02814900		 0.00062259		-0.00082764		 0.00021049	
O		4.15402813		7.13843396		-0.10765874		-0.00027698		-0.00011238		 0.00007277	
O		1.20795223		4.32156609		8.13297480		 0.00027698		 0.00011238		-0.00007277	
O		2.59661081		5.60967022		6.12212507		-0.00012411		-0.00046017		 0.00033306	
O		2.76536899		5.85032983		1.90319099		 0.00012411		 0.00046017		-0.00033306	
O		2.59661081		0.12032981		6.12212507		-0.00012411		 0.00046017		 0.00033306	
O		2.76536899		11.33966967		1.90319099		 0.00012411		-0.00046017		-0.00033306	
O		-0.23662980		2.86500001		5.91575018		 0.00038431		0.00000000		 0.00031029	
O		-0.09349003		8.59500004		2.33725022		-0.00038431		0.00000000		-0.00031029	
O		-0.07219709		2.86500001		1.80493115		 0.00055368		0.00000000		-0.00037679	
O		-0.25792275		8.59500004		6.44806868		-0.00055368		0.00000000		 0.00037679	
O		2.60879310		8.59500004		5.81758890		-0.00013011		0.00000000		-0.00035118	
O		2.75318670		2.86500001		2.20772716		 0.00013011		0.00000000		 0.00035118	
O		2.77448022		8.59500004		1.67540809		-0.00001595		-0.00000000		-0.00064044	
O		2.58750015		2.86500001		6.34990797		 0.00001595		0.00000000		 0.00064044	
O		-0.08437881		11.33966967		2.10946675		 0.00002646		-0.00007504		-0.00012689	
O		-0.24574103		0.12032981		6.14353422		-0.00002646		 0.00007504		 0.00012689	
O		-0.08437881		5.85032983		2.10946675		 0.00002646		 0.00007504		-0.00012689	
O		-0.24574103		5.60967022		6.14353422		-0.00002646		-0.00007504		 0.00012689	
O		4.21906282		7.13843396		3.89263271		 0.00049030		 0.00024656		 0.00022610	
O		1.14291812		4.32156609		4.13268278		-0.00049030		-0.00024656		-0.00022610	
O		1.14760475		10.05156612		4.01549126		-0.00040126		 0.00016625		 0.00040172	
O		4.21437505		1.40843393		4.00982480		 0.00040126		-0.00016625		-0.00040172	
O		4.21437505		4.32156609		4.00982480		 0.00040126		 0.00016625		-0.00040172	
O		1.14760475		7.13843396		4.01549126		-0.00040126		-0.00016625		 0.00040172	
O		1.14291812		1.40843393		4.13268278		-0.00049030		 0.00024656		-0.00022610	
O		4.21906282		10.05156612		3.89263271		 0.00049030		-0.00024656		 0.00022610	
H		2.65078426		8.59500004		4.76780819		-0.00029410		0.00000000		-0.00010763	
H		2.71119611		2.86500001		3.25750901		 0.00029410		0.00000000		 0.00010763	
H		-0.11418882		2.86500001		2.85471300		-0.00023747		-0.00000000		-0.00053243	
H		-0.21593102		8.59500004		5.39828684		 0.00023747		-0.00000000		 0.00053243	
Mg		2.68099018		5.73000003		4.01265774		0.00000000		0.00000000		0.00000000	
Mg		2.68099018		0.00000000		4.01265774		0.00000000		0.00000000		0.00000000	
Mg		0.00000000		0.00000000		0.00000000		0.00000000		0.00000000		0.00000000	
Mg		0.00000000		5.73000003		0.00000000		0.00000000		0.00000000		0.00000000	
Mg		1.34049509		1.44854406		2.00632887		 0.00013038		-0.00034441		-0.00053279	
Mg		4.02148471		10.01145599		6.01898719		-0.00013038		 0.00034441		 0.00053279	
Mg		4.18654519		4.28145597		1.89248698		 0.00000788		 0.00000705		-0.00012981	
Mg		1.17543517		7.17854408		6.13282908		-0.00000788		-0.00000705		 0.00012981	
Mg		1.17543517		10.01145599		6.13282908		-0.00000788		 0.00000705		 0.00012981	
Mg		4.18654519		1.44854406		1.89248698		 0.00000788		-0.00000705		-0.00012981	
Mg		4.02148471		7.17854408		6.01898719		-0.00013038		-0.00034441		 0.00053279	
Mg		1.34049509		4.28145597		2.00632887		 0.00013038		 0.00034441		-0.00053279	
Mg		-0.32024925		2.86500001		8.00623512		-0.00007567		0.00000000		-0.00074689	
Mg		-0.00987116		8.59500004		0.24676472		 0.00007567		0.00000000		 0.00074689	
Si		2.80755782		7.10634586		0.84845818		-0.00005840		 0.00019784		-0.00026446	
Si		2.55442197		4.35365419		7.17685901		 0.00005840		-0.00019784		 0.00026446	
Si		2.80755782		10.08365422		0.84845818		-0.00005840		-0.00019784		-0.00026446	
Si		2.55442197		1.37634583		7.17685901		 0.00005840		 0.00019784		 0.00026446	
Si		-0.20355219		1.37634583		5.08879971		 0.00027491		 0.00012610		 0.00052795	
Si		-0.12656821		10.08365422		3.16420013		-0.00027491		-0.00012610		-0.00052795	
Si		-0.20355219		4.35365419		5.08879971		 0.00027491		-0.00012610		 0.00052795	
Si		-0.12656821		7.10634586		3.16420013		-0.00027491		 0.00012610		-0.00052795	
