# total energy = -49430.9772423 eV	

CRYSTAL	
PRIMVEC	
		5.08940173		-0.81430654		0.00000000	
		-2.23487823		13.96799796		0.00000000	
		0.00000000		0.00000000		8.69559876	
PRIMCOORD
   70 1	
Si		2.54469983		-0.40715224		0.00000000		0.00000000		0.00000000		0.00000000	
Si		-1.11744015		6.98400001		4.34779989		0.00000000		0.00000000		0.00000000	
Si		1.63202203		4.86347188		0.00000000		-0.00052927		 0.00002107		-0.00000000	
Si		1.22249786		8.29022366		0.00000000		 0.00052927		-0.00002107		-0.00000000	
Si		-1.88771597		12.23183978		4.34779989		 0.00047247		-0.00000724		0.00000000	
Si		4.74223586		0.92185680		4.34779989		-0.00047247		 0.00000724		0.00000000	
Mg		0.47442089		2.28563716		0.00000000		 0.00056488		-0.00037504		0.00000000	
Mg		2.38009901		10.86805941		0.00000000		-0.00056488		 0.00037504		0.00000000	
Mg		0.17729082		9.13838667		4.34779989		-0.00063809		-0.00029559		-0.00000000	
Mg		2.67722907		4.01530887		4.34779989		 0.00063809		 0.00029559		-0.00000000	
Mg		0.08280887		4.38917675		2.81563506		 0.00078495		-0.00007799		 0.00034839	
Mg		2.77171102		8.76451982		5.87996473		-0.00078495		 0.00007799		-0.00034839	
Mg		2.77171102		8.76451982		2.81563506		-0.00078495		 0.00007799		 0.00034839	
Mg		0.08280887		4.38917675		5.87996473		 0.00078495		-0.00007799		-0.00034839	
Mg		-0.10133694		11.22384969		1.53216484		-0.00018241		 0.00013089		 0.00004687	
Mg		2.95585684		1.92984585		7.16343495		 0.00018241		-0.00013089		-0.00004687	
Mg		2.95585684		1.92984585		1.53216484		 0.00018241		-0.00013089		 0.00004687	
Mg		-0.10133694		11.22384969		7.16343495		-0.00018241		 0.00013089		-0.00004687	
Mg		1.42726020		6.57684777		2.79363516		0.00000000		0.00000000		-0.00044851	
Mg		1.42726020		6.57684777		5.90196360		0.00000000		0.00000000		 0.00044851	
Mg		0.00000000		0.00000000		1.55416474		0.00000000		0.00000000		-0.00037791	
Mg		0.00000000		0.00000000		7.14143454		0.00000000		0.00000000		 0.00037791	
Mg		2.54469983		-0.40715224		2.97293866		0.00000000		0.00000000		 0.00056697	
Mg		2.54469983		-0.40715224		5.72266061		0.00000000		0.00000000		-0.00056697	
Mg		-1.11744015		6.98400001		1.37486072		0.00000000		0.00000000		-0.00013786	
Mg		-1.11744015		6.98400001		7.32073753		0.00000000		0.00000000		 0.00013786	
O		0.76734209		5.50077778		1.35755675		-0.00005034		-0.00001052		 0.00016652	
O		2.08717780		7.65291776		7.33804253		 0.00005034		 0.00001052		-0.00016652	
O		2.08717780		7.65291776		1.35755675		 0.00005034		 0.00001052		 0.00016652	
O		0.76734209		5.50077778		7.33804253		-0.00005034		-0.00001052		-0.00016652	
O		-1.18689672		12.61866567		2.99024315		 0.00045822		 0.00029635		 0.00016141	
O		4.04141661		0.53502988		5.70535664		-0.00045822		-0.00029635		-0.00016141	
O		4.04141661		0.53502988		2.99024315		-0.00045822		-0.00029635		 0.00016141	
O		-1.18689672		12.61866567		5.70535664		 0.00045822		 0.00029635		-0.00016141	
O		1.93018396		3.21939897		0.00000000		-0.00004616		-0.00011200		0.00000000	
O		0.92433490		9.93429657		0.00000000		 0.00004616		 0.00011200		0.00000000	
O		-1.66162015		10.59929769		4.34779989		-0.00053394		 0.00019219		-0.00000000	
O		4.51614005		2.55439785		4.34779989		 0.00053394		-0.00019219		-0.00000000	
O		3.10144407		5.14528799		0.00000000		-0.00043417		 0.00022612		0.00000000	
O		-0.24692521		8.00840858		0.00000000		 0.00043417		-0.00022612		0.00000000	
O		1.56250000		12.19672880		4.34779989		 0.00055588		-0.00030889		0.00000000	
O		1.29201989		0.95696778		4.34779989		-0.00055588		 0.00030889		0.00000000	
O		1.65055887		0.73042407		1.25773202		-0.00030595		-0.00029118		 0.00005602	
O		1.20395999		12.42327250		7.43786776		 0.00030595		 0.00029118		-0.00005602	
O		1.20395999		12.42327250		1.25773202		 0.00030595		 0.00029118		 0.00005602	
O		1.65055887		0.73042407		7.43786776		-0.00030595		-0.00029118		-0.00005602	
O		-0.54990522		7.88770756		3.09006787		 0.00004657		-0.00034557		 0.00010945	
O		3.40442511		5.26598901		5.60553089		-0.00004657		 0.00034557		-0.00010945	
O		3.40442511		5.26598901		3.09006787		-0.00004657		 0.00034557		 0.00010945	
O		-0.54990522		7.88770756		5.60553089		 0.00004657		-0.00034557		-0.00010945	
O		4.43773487		2.71774674		1.38433917		 0.00015773		-0.00021879		-0.00003525	
O		-1.58321498		10.43594983		7.31125959		-0.00015773		 0.00021879		 0.00003525	
O		-1.58321498		10.43594983		1.38433917		-0.00015773		 0.00021879		-0.00003525	
O		4.43773487		2.71774674		7.31125959		 0.00015773		-0.00021879		 0.00003525	
O		0.95321505		10.08047962		2.96345970		-0.00002673		-0.00007675		-0.00020745	
O		1.90130381		3.07321695		5.73213906		 0.00002673		 0.00007675		 0.00020745	
O		1.90130381		3.07321695		2.96345970		 0.00002673		 0.00007675		-0.00020745	
O		0.95321505		10.08047962		5.73213906		-0.00002673		-0.00007675		 0.00020745	
O		-1.06196106		12.70225178		0.00000000		 0.00001343		 0.00028425		-0.00000000	
O		3.91648096		0.45144376		0.00000000		-0.00001343		-0.00028425		-0.00000000	
O		0.60839122		5.62978572		4.34779989		-0.00015349		-0.00033624		0.00000000	
O		2.24612867		7.52390982		4.34779989		 0.00015349		 0.00033624		0.00000000	
H		4.02174999		3.47503312		0.94347271		 0.00038348		 0.00015831		-0.00039568	
H		-1.16723010		9.67866294		7.75212656		-0.00038348		-0.00015831		 0.00039568	
H		-1.16723010		9.67866294		0.94347271		-0.00038348		-0.00015831		-0.00039568	
H		4.02174999		3.47503312		7.75212656		 0.00038348		 0.00015831		 0.00039568	
H		1.14235986		10.74094562		3.40432667		-0.00009690		-0.00012950		-0.00062096	
H		1.71216003		2.41275095		5.29127158		 0.00009690		 0.00012950		 0.00062096	
H		1.71216003		2.41275095		3.40432667		 0.00009690		 0.00012950		-0.00062096	
H		1.14235986		10.74094562		5.29127158		-0.00009690		-0.00012950		 0.00062096	
