# total energy = -2552.10517848 eV	

CRYSTAL	
PRIMVEC	
		3.14200087		-0.50272154		0.00000000	
		-2.00636777		2.97241178		0.00000000	
		0.00000000		0.00000000		4.76599849	
PRIMCOORD
   5 1	
Mg		0.00000000		0.00000000		0.00000000		0.00000000		0.00000000		0.00000000	
O		-0.29024595		1.81403496		1.05614575		 0.00034250		 0.00009301		 0.00081511	
O		1.42587682		0.65565687		3.70985369		-0.00034250		-0.00009301		-0.00081511	
H		-0.29024595		1.81403496		2.05080993		 0.00064095		-0.00016412		 0.00065943	
H		1.42587682		0.65565687		2.71518983		-0.00064095		 0.00016412		-0.00065943	
