# total energy = -2552.81396491 eV	

CRYSTAL	
PRIMVEC	
		3.14200028		-0.12567989		0.00000000	
		-1.67984273		2.78389059		0.00000000	
		0.00000000		0.00000000		4.76599960	
PRIMCOORD
   5 1	
Mg		0.00000000		0.00000000		0.00000000		0.00000000		0.00000000		0.00000000	
O		-0.07256089		1.81403513		1.05614592		 0.00003123		 0.00007408		 0.00015015	
O		1.53471906		0.84417715		3.70985431		-0.00003123		-0.00007408		-0.00015015	
H		-0.07256089		1.81403513		2.05081002		 0.00048335		 0.00000400		 0.00026657	
H		1.53471906		0.84417715		2.71519022		-0.00048335		-0.00000400		-0.00026657	
