# total energy = -2552.81396491 eV	

CRYSTAL	
PRIMVEC	
		3.14200028		0.12567989		0.00000000	
		-1.46215755		2.65821070		0.00000000	
		0.00000000		0.00000000		4.76599960	
PRIMCOORD
   5 1	
Mg		0.00000000		0.00000000		0.00000000		0.00000000		0.00000000		0.00000000	
O		0.07256089		1.81403513		1.05614592		-0.00003163		 0.00007417		 0.00014500	
O		1.60728121		0.96985703		3.70985431		 0.00003163		-0.00007417		-0.00014500	
H		0.07256089		1.81403513		2.05081002		-0.00048398		 0.00000402		 0.00027099	
H		1.60728121		0.96985703		2.71519022		 0.00048398		-0.00000402		-0.00027099	
