# total energy = -2552.67276083 eV	

CRYSTAL	
PRIMVEC	
		3.14199893		-0.25135928		0.00000000	
		-1.78868395		2.84673175		0.00000000	
		0.00000000		0.00000000		4.76599834	
PRIMCOORD
   5 1	
Mg		0.00000000		0.00000000		0.00000000		0.00000000		0.00000000		0.00000000	
O		-0.14512299		1.81403485		1.05614587		 0.00065436		 0.00018427		-0.00012839	
O		1.49843892		0.78133699		3.70985374		-0.00065436		-0.00018427		 0.00012839	
H		-0.14512299		1.81403485		2.05080996		 0.00085651		-0.00000280		-0.00057478	
H		1.49843892		0.78133699		2.71518995		-0.00085651		 0.00000280		 0.00057478	
