# total energy = -2552.10529658 eV	

CRYSTAL	
PRIMVEC	
		3.14200087		0.50272154		0.00000000	
		-1.13563310		2.46969024		0.00000000	
		0.00000000		0.00000000		4.76599849	
PRIMCOORD
   5 1	
Mg		0.00000000		0.00000000		0.00000000		0.00000000		0.00000000		0.00000000	
O		0.29024595		1.81403496		1.05614575		-0.00032634		 0.00006629		 0.00061970	
O		1.71612277		1.15837682		3.70985369		 0.00032634		-0.00006629		-0.00061970	
H		0.29024595		1.81403496		2.05080993		-0.00059167		-0.00015620		 0.00067100	
H		1.71612277		1.15837682		2.71518983		 0.00059167		 0.00015620		-0.00067100	
