# total energy = -2552.43674459 eV	

CRYSTAL	
PRIMVEC	
		3.14200054		-0.37703931		0.00000000	
		-1.89752558		2.90957129		0.00000000	
		0.00000000		0.00000000		4.76599897	
PRIMCOORD
   5 1	
Mg		0.00000000		0.00000000		0.00000000		0.00000000		0.00000000		0.00000000	
O		-0.21768407		1.81403516		1.05614613		 0.00051470		 0.00002734		 0.00089650	
O		1.46215808		0.71849714		3.70985411		-0.00051470		-0.00002734		-0.00089650	
H		-0.21768407		1.81403516		2.05080996		 0.00086807		 0.00001186		 0.00043600	
H		1.46215808		0.71849714		2.71518996		-0.00086807		-0.00001186		-0.00043600	
