# total energy = -21538.9128298 eV	

CRYSTAL	
PRIMVEC	
		5.18479837		0.41478283		0.00000000	
		0.71384050		8.92299839		0.00000000	
		-0.15320620		-0.12221647		9.18820038	
PRIMCOORD
   42 1	
Mg		0.00000000		0.00000000		0.00000000		0.00000000		0.00000000		0.00000000	
Mg		2.94931996		4.66889165		0.00000000		0.00000000		0.00000000		0.00000000	
Mg		2.71131903		1.69387487		0.00000000		-0.00052153		-0.00054748		-0.00042210	
Mg		3.18732192		7.64390999		0.00000000		 0.00052153		 0.00054748		 0.00042210	
Mg		0.47583905		5.94798266		0.00000000		-0.00052258		-0.00055213		-0.00042380	
Mg		0.23800093		2.97501678		0.00000000		 0.00052258		 0.00055213		 0.00042380	
Si		4.39692009		1.79885090		2.67376570		 0.00015623		 0.00013727		 0.00034580	
Si		1.34851570		7.41671386		6.51443260		-0.00015623		-0.00013727		-0.00034580	
Si		2.16144011		6.05295972		2.67376570		 0.00016088		 0.00011096		 0.00034672	
Si		3.58399568		3.16260608		6.51443260		-0.00016088		-0.00011096		-0.00034672	
Si		1.92325974		3.07571104		2.67376570		 0.00026221		-0.00008914		-0.00009515	
Si		3.82217605		6.13985372		6.51443260		-0.00026221		 0.00008914		 0.00009515	
Si		4.87257970		7.74460269		2.67376570		 0.00026773		-0.00011124		-0.00009360	
Si		0.87285610		1.47096207		6.51443260		-0.00026773		 0.00011124		 0.00009360	
O		1.94941376		3.09562966		1.08053203		 0.00014389		 0.00011562		-0.00005578	
O		3.79602203		6.11993561		8.10766679		-0.00014389		-0.00011562		 0.00005578	
O		4.89873476		7.76452184		1.08053203		 0.00014412		 0.00011723		-0.00004824	
O		0.84670104		1.45104396		8.10766679		-0.00014412		-0.00011723		 0.00004824	
O		4.42328061		1.82135772		1.08053203		 0.00018053		-0.00051355		 0.00036745	
O		1.32215518		7.39420755		8.10766679		-0.00018053		 0.00051355		-0.00036745	
O		2.18780115		6.07546603		1.08053203		 0.00018011		-0.00051017		 0.00036196	
O		3.55763464		3.14009977		8.10766679		-0.00018011		 0.00051017		-0.00036196	
O		1.70913204		0.12434903		1.03459097		 0.00031400		 0.00052400		-0.00051658	
O		3.32246378		0.16821578		8.15360784		-0.00031400		-0.00052400		 0.00051658	
O		4.65845199		4.79324068		1.03459097		 0.00031401		 0.00055072		-0.00069433	
O		1.08698380		4.42232460		8.15360784		-0.00031401		-0.00055072		 0.00069433	
O		2.12656496		4.56479362		3.19841175		-0.00014669		 0.00000362		 0.00000228	
O		3.61887083		4.65077166		5.98978655		 0.00014669		-0.00000362		-0.00000228	
O		4.36204494		0.31068584		3.19841175		-0.00014413		-0.00000197		 0.00000865	
O		0.66955088		-0.01811999		5.98978655		 0.00014413		 0.00000197		-0.00000865	
O		3.09910886		2.34615410		3.20576284		-0.00030150		-0.00082207		 0.00074169	
O		2.64632694		6.86941066		5.98243702		 0.00030150		 0.00082207		-0.00074169	
O		0.86362888		6.60026188		3.20576284		-0.00032538		-0.00080369		 0.00074077	
O		4.88180692		2.61530288		5.98243702		 0.00032538		 0.00080369		-0.00074077	
O		0.51952115		2.29955091		3.20576284		 0.00059251		-0.00036703		-0.00044076	
O		5.22591464		6.91601489		5.98243702		-0.00059251		 0.00036703		 0.00044076	
O		3.46884111		6.96844256		3.20576284		 0.00060430		-0.00035361		-0.00044001	
O		2.27659469		2.24712271		5.98243702		-0.00060430		 0.00035361		 0.00044001	
H		1.69663420		0.12697311		1.86520419		 0.00018287		-0.00041350		-0.00068684	
H		4.04880211		9.08859164		7.32299463		-0.00018287		 0.00041350		 0.00068684	
H		4.64595363		4.79586477		1.86520419		 0.00018395		-0.00043685		-0.00052992	
H		1.09948216		4.41969999		7.32299463		-0.00018395		 0.00043685		 0.00052992	
