# total energy = -21535.3054154 eV	

CRYSTAL	
PRIMVEC	
		5.18480053		0.62217481		0.00000000	
		1.07076000		8.92299828		0.00000000	
		-0.15763120		-0.12799114		9.18819739	
PRIMCOORD
   42 1	
Mg		0.00000000		0.00000000		0.00000000		0.00000000		0.00000000		0.00000000	
Mg		3.12777974		4.77258759		0.00000000		0.00000000		0.00000000		0.00000000	
Mg		2.77077793		1.79757110		0.00000000		 0.00017217		 0.00044805		-0.00051615	
Mg		3.48478155		7.74760565		0.00000000		-0.00017217		-0.00044805		 0.00051615	
Mg		0.71375819		5.94798283		0.00000000		 0.00017232		 0.00044850		-0.00051634	
Mg		0.35700181		2.97501701		0.00000000		-0.00017232		-0.00044850		 0.00051634	
Si		4.45517687		1.97006775		2.67376576		 0.00041546		 0.00006447		-0.00032943	
Si		1.64275195		7.44711576		6.51443267		-0.00041546		-0.00006447		 0.00032943	
Si		2.39815660		6.12047948		2.67376576		 0.00041604		 0.00006477		-0.00033124	
Si		3.69977273		3.29670403		6.51443267		-0.00041604		-0.00006477		 0.00033124	
Si		2.04088690		3.14323163		2.67376576		-0.00030365		 0.00029906		 0.00033783	
Si		4.05704191		6.27395136		6.51443267		 0.00030365		-0.00029906		-0.00033783	
Si		5.16866665		7.91581974		2.67376576		-0.00030112		 0.00030253		 0.00034272	
Si		0.92926217		1.50136377		6.51443267		 0.00030112		-0.00030253		-0.00034272	
O		2.06775878		3.16413894		1.08053192		 0.00006827		-0.00047709		-0.00001362	
O		4.03016951		6.25304457		8.10766650		-0.00006827		 0.00047709		 0.00001362	
O		5.19553852		7.93672653		1.08053192		 0.00006758		-0.00047620		-0.00001841	
O		0.90238977		1.48045594		8.10766650		-0.00006758		 0.00047620		 0.00001841	
O		4.48235893		1.99356308		1.08053192		-0.00015646		 0.00039324		-0.00012398	
O		1.61556989		7.42361939		8.10766650		 0.00015646		-0.00039324		 0.00012398	
O		2.42533866		6.14397481		1.08053192		-0.00015608		 0.00039360		-0.00012147	
O		3.67258963		3.27320870		8.10766650		 0.00015608		-0.00039360		 0.00012147	
O		1.70863370		0.19275382		1.03459089		 0.00001963		-0.00004569		-0.00063915	
O		3.31853459		0.30142880		8.15360754		-0.00001963		 0.00004569		 0.00063915	
O		4.83641397		4.96534193		1.03459089		 0.00001940		-0.00004985		-0.00062418	
O		1.26151485		4.45184053		8.15360754		-0.00001940		 0.00004985		 0.00062418	
O		2.30348389		4.63570286		3.19841195		 0.00041785		-0.00035843		 0.00016486	
O		3.79444492		4.78148065		5.98978648		-0.00041785		 0.00035843		-0.00016486	
O		4.36050363		0.48529113		3.19841195		 0.00041683		-0.00036196		 0.00016399	
O		0.66666518		0.00889202		5.98978648		-0.00041683		 0.00036196		-0.00016399	
O		3.18357887		2.46336107		3.20576295		-0.00081541		-0.00028583		 0.00036894	
O		2.91434994		6.95382140		5.98243652		 0.00081541		 0.00028583		-0.00036894	
O		1.12655913		6.61377280		3.20576295		-0.00081561		-0.00028511		 0.00036894	
O		4.97136969		2.80340967		5.98243652		 0.00081561		 0.00028511		-0.00036894	
O		0.61042218		2.31305894		3.20576295		 0.00033922		-0.00081369		-0.00044072	
O		5.48750663		7.10412352		5.98243652		-0.00033922		 0.00081369		 0.00044072	
O		3.73820297		7.08564653		3.20576295		 0.00033742		-0.00081478		-0.00044051	
O		2.35972689		2.33153594		5.98243652		-0.00033742		 0.00081478		 0.00044051	
H		1.69628107		0.19486717		1.86520379		 0.00039432		 0.00006149		 0.00011863	
H		4.40164774		9.22231635		7.32299464		-0.00039432		-0.00006149		-0.00011863	
H		4.82406081		4.96745475		1.86520379		 0.00039417		 0.00006521		 0.00010474	
H		1.27386800		4.44972876		7.32299464		-0.00039417		-0.00006521		-0.00010474	
