# total energy = -21535.3291554 eV	

CRYSTAL	
PRIMVEC	
		5.18480053		-0.62217481		0.00000000	
		-1.07076000		8.92299828		0.00000000	
		-0.13107212		-0.09334841		9.18819739	
PRIMCOORD
   42 1	
Mg		0.00000000		0.00000000		0.00000000		0.00000000		0.00000000		0.00000000	
Mg		2.05701974		4.15041173		0.00000000		0.00000000		0.00000000		0.00000000	
Mg		2.41402207		1.17539472		0.00000000		-0.00041683		 0.00060129		 0.00043139	
Mg		1.70001793		7.12542979		0.00000000		 0.00041683		-0.00060129		-0.00043139	
Mg		-0.71375819		5.94798283		0.00000000		-0.00041650		 0.00060588		 0.00043018	
Mg		-0.35700181		2.97501701		0.00000000		 0.00041650		-0.00060588		-0.00043018	
Si		4.10563572		0.94276990		2.67376576		-0.00035818		-0.00017901		 0.00023594	
Si		-0.12266575		7.26470463		6.51443267		 0.00035818		 0.00017901		-0.00023594	
Si		0.97785598		5.71535749		2.67376576		-0.00034802		-0.00017075		 0.00024796	
Si		3.00511399		2.49211704		6.51443267		 0.00034802		 0.00017075		-0.00024796	
Si		1.33512568		2.73810964		2.67376576		-0.00014203		 0.00004369		-0.00031572	
Si		2.64784377		5.46936541		6.51443267		 0.00014203		-0.00004369		 0.00031572	
Si		3.39214594		6.88852137		2.67376576		-0.00014112		 0.00004592		-0.00032206	
Si		0.59082403		1.31895316		6.51443267		 0.00014112		-0.00004592		 0.00032206	
O		1.35769202		2.75308476		1.08053192		-0.00034250		-0.00053440		-0.00022178	
O		2.62527796		5.45439081		8.10766650		 0.00034250		 0.00053440		 0.00022178	
O		3.41471176		6.90349649		1.08053192		-0.00034249		-0.00053489		-0.00021968	
O		0.56825822		1.30397908		8.10766650		 0.00034249		 0.00053489		 0.00021968	
O		4.12789187		0.96033305		1.08053192		 0.00008251		 0.00050808		 0.00008914	
O		-0.14492190		7.24714253		8.10766650		-0.00008251		-0.00050808		-0.00008914	
O		1.00011213		5.73292063		1.08053192		 0.00008233		 0.00050802		 0.00008393	
O		2.98285784		2.47455494		8.10766650		-0.00008233		-0.00050802		-0.00008393	
O		1.71162382		-0.21767685		1.03459089		 0.00004868		 0.00002551		-0.00054499	
O		3.34210564		-0.49784794		8.15360754		-0.00004868		-0.00002551		 0.00054499	
O		3.76864460		3.93273489		1.03459089		 0.00005059		 0.00004089		-0.00048348	
O		0.21432589		4.27473964		8.15360754		-0.00005059		-0.00004089		 0.00048348	
O		1.24196996		4.21024798		3.19841195		 0.00049543		 0.00024771		 0.00014306	
O		2.74100002		3.99722655		5.98978648		-0.00049543		-0.00024771		-0.00014306	
O		4.36974970		-0.56234013		3.19841195		 0.00049724		 0.00024986		 0.00014445	
O		0.68397975		-0.15318519		5.98978648		-0.00049724		-0.00024986		-0.00014445	
O		2.67676058		1.76011998		3.20576295		 0.00003934		 0.00073755		-0.00020055	
O		1.30620887		6.44735455		5.98243652		-0.00003934		-0.00073755		 0.00020055	
O		-0.45101916		6.53270757		3.20576295		 0.00003903		 0.00073542		-0.00020009	
O		4.43398861		1.67476696		5.98243652		-0.00003903		-0.00073542		 0.00020009	
O		0.06501386		2.23200676		3.20576295		-0.00043221		 0.00006038		 0.00030171	
O		3.91795559		5.97546881		5.98243652		 0.00043221		-0.00006038		-0.00030171	
O		2.12203465		6.38241850		3.20576295		-0.00044417		 0.00005126		 0.00029938	
O		1.86093585		1.82505603		5.98243652		 0.00044417		-0.00005126		-0.00029938	
H		1.69839702		-0.21249506		1.86520379		 0.00033020		-0.00041780		 0.00004771	
H		2.28457400		8.41996959		7.32299464		-0.00033020		 0.00041780		-0.00004771	
H		3.75541676		3.93791667		1.86520379		 0.00032774		-0.00043283		-0.00000835	
H		0.22755321		4.26955786		7.32299464		-0.00032774		 0.00043283		 0.00000835	
