# total energy = -21538.92525 eV	

CRYSTAL	
PRIMVEC	
		5.18479837		-0.41478283		0.00000000	
		-0.71384050		8.92299839		0.00000000	
		-0.13549555		-0.09912241		9.18820038	
PRIMCOORD
   42 1	
Mg		0.00000000		0.00000000		0.00000000		0.00000000		0.00000000		0.00000000	
Mg		2.23547998		4.25410778		0.00000000		0.00000000		0.00000000		0.00000000	
Mg		2.47348091		1.27909100		0.00000000		-0.00045045		 0.00086359		 0.00046034	
Mg		1.99747905		7.22912560		0.00000000		 0.00045045		-0.00086359		-0.00046034	
Mg		-0.47583905		5.94798266		0.00000000		-0.00044672		 0.00086543		 0.00046757	
Mg		-0.23800093		2.97501678		0.00000000		 0.00044672		-0.00086543		-0.00046757	
Si		4.16389271		1.11398616		2.67376570		-0.00018178		 0.00006569		 0.00028754	
Si		0.17157014		7.29510699		6.51443260		 0.00018178		-0.00006569		-0.00028754	
Si		1.21457276		5.78287886		2.67376570		-0.00015857		 0.00028888		 0.00044565	
Si		3.12089009		2.62621482		6.51443260		 0.00015857		-0.00028888		-0.00044565	
Si		1.45275313		2.80562965		2.67376570		-0.00025970		 0.00020186		-0.00004889	
Si		2.88271076		5.60346298		6.51443260		 0.00025970		-0.00020186		 0.00004889	
Si		3.68823311		7.05973796		2.67376570		-0.00017016		 0.00032469		-0.00014319	
Si		0.64723078		1.34935520		6.51443260		 0.00017016		-0.00032469		 0.00014319	
O		1.47603704		2.82159368		1.08053203		-0.00048842		-0.00059790		-0.00011737	
O		2.85942685		5.58749999		8.10766679		 0.00048842		 0.00059790		 0.00011737	
O		3.71151702		7.07570199		1.08053203		-0.00049121		-0.00062617		-0.00008474	
O		0.62394687		1.33339221		8.10766679		 0.00049121		 0.00062617		 0.00008474	
O		4.18696961		1.13253787		1.08053203		 0.00017239		 0.00011750		 0.00034580	
O		0.14849376		7.27655580		8.10766679		-0.00017239		-0.00011750		-0.00034580	
O		1.23765017		5.80143004		1.08053203		 0.00016717		 0.00007418		 0.00024390	
O		3.09781372		2.60766415		8.10766679		-0.00016717		-0.00007418		-0.00024390	
O		1.71112572		-0.14927189		1.03459097		-0.00024537		 0.00030240		 0.00059781	
O		3.33817710		-0.36463491		8.15360784		 0.00024537		-0.00030240		-0.00059781	
O		3.94660570		4.10483590		1.03459097		-0.00024842		 0.00010102		-0.00072400	
O		0.38885715		4.30425674		8.15360784		 0.00024842		-0.00010102		 0.00072400	
O		1.41888912		4.28115696		3.19841175		 0.00023522		 0.00013122		-0.00011594	
O		2.91657372		4.12793568		5.98978655		-0.00023522		-0.00013122		 0.00011594	
O		4.36820908		-0.38773521		3.19841175		 0.00023371		 0.00015925		-0.00014187	
O		0.68109374		-0.12617210		5.98978655		-0.00023371		-0.00015925		 0.00014187	
O		2.76123080		1.87732701		3.20576284		-0.00029374		 0.00033470		 0.00021516	
O		1.57423204		6.53176667		5.98243702		 0.00029374		-0.00033470		-0.00021516	
O		-0.18808915		6.54621866		3.20576284		-0.00015557		 0.00025092		 0.00020896	
O		4.52355200		1.86287398		5.98243702		 0.00015557		-0.00025092		-0.00020896	
O		0.15591611		2.24551601		3.20576284		 0.00023793		-0.00010935		 0.00003512	
O		4.17954674		6.16357766		5.98243702		-0.00023793		 0.00010935		-0.00003512	
O		2.39139609		6.49962380		3.20576284		-0.00003885		-0.00027294		 0.00002221	
O		1.94406780		1.90946988		5.98243702		 0.00003885		 0.00027294		-0.00002221	
H		1.69804377		-0.14460106		1.86520419		 0.00047499		-0.00025439		-0.00064069	
H		2.63741908		8.55369474		7.32299463		-0.00047499		 0.00025439		 0.00064069	
H		3.93352375		4.10950672		1.86520419		 0.00048944		-0.00006041		 0.00054971	
H		0.40193910		4.29958696		7.32299463		-0.00048944		 0.00006041		-0.00054971	
