# total energy = -24709.1411688 eV	

CRYSTAL	
PRIMVEC	
		9.03900142		1.08467799		0.00000000	
		1.04340114		8.69500341		0.00000000	
		0.00000000		0.00000000		5.08899648	
PRIMCOORD
   40 1	
O		1.18386896		0.88249426		0.29974238		-0.00021522		-0.00009070		-0.00011632	
O		2.04696930		8.07499767		2.84424153		 0.00009818		-0.00057382		-0.00042524	
O		6.22506751		5.77233405		2.24475768		-0.00021522		-0.00009070		 0.00011632	
O		6.04476853		4.26983769		4.78925774		 0.00009818		-0.00057382		 0.00042524	
O		3.66347497		2.54778564		0.53739833		 0.00031338		-0.00026416		 0.00016384	
O		4.19352195		6.96484621		3.08189931		-0.00049896		 0.00000479		 0.00006027	
O		8.70467534		7.43762634		2.00710173		 0.00031338		-0.00026416		-0.00016384	
O		8.19132209		3.15968623		4.55160179		-0.00049896		 0.00000479		-0.00006027	
O		4.23675704		8.74312362		1.40456354		 0.00056596		 0.00005778		-0.00059399	
O		3.27495096		0.72807297		3.94906360		-0.00018547		-0.00034662		 0.00019024	
O		8.23455718		4.93796364		1.13993561		 0.00056596		 0.00005778		 0.00059399	
O		8.31615133		5.61791276		3.68443567		-0.00018547		-0.00034662		-0.00019024	
O		8.88799498		8.85392929		4.45338401		 0.00004497		-0.00022758		 0.00071874	
O		8.03512009		1.74663608		1.90888395		 0.00021686		 0.00020719		 0.00038020	
O		3.84679461		3.96408859		3.18011617		 0.00004497		-0.00022758		-0.00071874	
O		4.03731995		5.55179606		0.63561611		 0.00021686		 0.00020719		-0.00038020	
O		6.41013054		7.28482826		4.87882504		 0.00028006		 0.00051432		-0.00019351	
O		5.86693669		2.75821199		2.33432407		 0.00030574		 0.00008337		-0.00008660	
O		1.36893199		2.39498756		2.75467605		 0.00028006		 0.00051432		 0.00019351	
O		1.86913837		6.56337197		0.21017599		 0.00030574		 0.00008337		 0.00008660	
O		6.83581282		8.97616757		2.86103631		-0.00038163		-0.00024634		-0.00031920	
O		5.89320493		1.12110612		0.31653625		 0.00046591		 0.00048607		-0.00006051	
O		1.79461336		4.08632778		4.77246388		-0.00038163		-0.00024634		 0.00031920	
O		1.89540570		4.92626611		2.22796381		 0.00046591		 0.00048607		 0.00006051	
Si		2.77442139		1.09307082		0.34808836		-0.00029289		-0.00006915		-0.00013025	
Si		3.63272218		8.24557830		2.89258843		 0.00007467		-0.00026172		-0.00058955	
Si		7.81562085		5.98291061		2.19641261		-0.00029289		-0.00006915		 0.00013025	
Si		7.63052141		4.44041831		4.74091176		 0.00007467		-0.00026172		 0.00058955	
Si		7.29438457		8.67726366		4.38671835		-0.00005244		 0.00076095		 0.00001363	
Si		6.43796282		1.54040934		1.84221829		-0.00008521		 0.00038740		 0.00026885	
Si		2.25318511		3.78742478		3.24678183		-0.00005244		 0.00076095		-0.00001363	
Si		2.44016268		5.34556932		0.70228177		-0.00008521		 0.00038740		-0.00026885	
Mg		9.11667272		1.91755810		3.64372418		 0.00040876		-0.00017444		 0.00014157	
Mg		9.95953065		8.94137904		1.09922411		-0.00084324		-0.00008413		-0.00019439	
Mg		5.11887258		5.72271717		3.98977601		 0.00040876		-0.00017444		-0.00014157	
Mg		4.91833210		4.05153925		1.44527595		-0.00084324		-0.00008413		 0.00019439	
Mg		0.32833483		2.29068387		1.09464397		-0.00019845		-0.00006064		 0.00036041	
Mg		0.82353319		6.41733168		3.63914403		-0.00002097		-0.00010257		 0.00055264	
Mg		5.36953520		7.18052365		1.44985609		-0.00019845		-0.00006064		-0.00036041	
Mg		4.82133242		2.61217170		3.99435616		-0.00002097		-0.00010257		-0.00055264	
