# total energy = -24715.2222851 eV	

CRYSTAL	
PRIMVEC	
		9.03900020		-0.36155965		0.00000000	
		-0.34780033		8.69499929		0.00000000	
		0.00000000		0.00000000		5.08900087	
PRIMCOORD
   40 1	
O		1.06366907		0.70749917		0.29974225		-0.00005938		-0.00064506		-0.00022126	
O		0.77596917		7.90000319		2.84424178		 0.00036986		 0.00055235		-0.00071995	
O		5.40926901		4.87421899		2.24475819		-0.00005938		-0.00064506		 0.00022126	
O		5.46936853		3.37172282		4.78925772		 0.00036986		 0.00055235		 0.00071995	
O		3.32124034		2.00269831		0.53739842		 0.00026093		-0.00017506		-0.00007620	
O		3.14455755		6.41975802		3.08189886		 0.00025490		-0.00029869		-0.00048455	
O		7.66684028		6.16941813		2.00710202		 0.00026093		-0.00017506		 0.00007620	
O		7.83795692		1.89147765		4.55160155		 0.00025490		-0.00029869		 0.00048455	
O		2.89995297		8.22565926		1.40456442		-0.00055387		 0.00010212		-0.00006712	
O		3.22055492		0.21060795		3.94906395		-0.00002742		 0.00059490		-0.00053733	
O		7.59335324		3.69737889		1.13993601		-0.00055387		 0.00010212		 0.00006712	
O		7.56615485		4.37732777		3.68443555		-0.00002742		 0.00059490		 0.00053733	
O		7.62381189		7.58355165		4.45338393		 0.00008084		 0.00006511		-0.00066742	
O		7.90810318		0.47625858		1.90888440		 0.00023426		-0.00022181		-0.00029660	
O		3.27821196		3.41683183		3.18011556		 0.00008084		 0.00006511		 0.00066742	
O		3.21470382		5.00453895		0.63561603		 0.00023426		-0.00022181		 0.00029660	
O		5.35240171		6.38613500		4.87882533		-0.00041591		 0.00017096		 0.00021213	
O		5.53346649		1.85951823		2.33432399		 0.00061959		 0.00025816		 0.00015791	
O		1.00680177		2.21941518		2.75467598		-0.00041591		 0.00017096		-0.00021213	
O		0.84006712		6.38779770		0.21017645		 0.00061959		 0.00025816		-0.00015791	
O		5.51180801		8.04131884		2.86103610		-0.00084146		 0.00017526		-0.00026391	
O		5.82600974		0.18625641		0.31653566		 0.00010152		-0.00037418		-0.00017939	
O		1.16620807		3.87459902		4.77246430		-0.00084146		 0.00017526		 0.00026391	
O		1.13261128		4.71453588		2.22796387		 0.00010152		-0.00037418		 0.00017939	
Si		2.65102068		0.66397234		0.34808800		-0.00053006		 0.00023955		-0.00030188	
Si		2.36492105		7.81647756		2.89258753		 0.00017730		-0.00031195		-0.00000101	
Si		6.99662061		4.83069126		2.19641334		-0.00053006		 0.00023955		 0.00030188	
Si		7.05832132		3.28819899		4.74091196		 0.00017730		-0.00031195		 0.00000101	
Si		6.02783652		7.66214890		4.38671776		 0.00044122		-0.00010099		-0.00056119	
Si		6.31331106		0.52529276		1.84221823		 0.00035327		 0.00007620		-0.00028027	
Si		1.68223659		3.49542908		3.24678174		 0.00044122		-0.00010099		 0.00056119	
Si		1.61991079		5.05357313		0.70228221		 0.00035327		 0.00007620		 0.00028027	
Mg		8.98297872		0.47493331		3.64372390		 0.00034582		-0.00014954		 0.00070301	
Mg		8.70202549		7.49875412		1.09922437		-0.00033825		 0.00043333		-0.00066763	
Mg		4.28957936		5.00321278		3.98977560		 0.00034582		-0.00014954		-0.00070301	
Mg		4.35642556		3.33203430		1.44527607		-0.00033825		 0.00043333		 0.00066763	
Mg		-0.03713296		2.28200694		1.09464426		-0.00050169		-0.00011226		-0.00003655	
Mg		-0.20219858		6.40865378		3.63914380		 0.00002852		-0.00027843		 0.00001616	
Mg		4.30846698		6.44872676		1.44985617		-0.00050169		-0.00011226		 0.00003655	
Mg		4.49120079		1.88037431		3.99435570		 0.00002852		-0.00027843		-0.00001616	
