# total energy = -24706.8756249 eV	

CRYSTAL	
PRIMVEC	
		9.03900340		-1.44624457		0.00000000	
		-1.39120176		8.69499728		0.00000000	
		0.00000000		0.00000000		5.08900210	
PRIMCOORD
   40 1	
O		0.97351901		0.57625328		0.29974211		-0.00040272		-0.00037861		 0.00002682	
O		-0.17728124		7.76875577		2.84424224		-0.00056263		 0.00042357		-0.00045464	
O		4.79741892		4.20063329		2.24475802		-0.00040272		-0.00037861		-0.00002682	
O		5.03781768		2.69813667		4.78925816		-0.00056263		 0.00042357		 0.00045464	
O		3.06456361		1.59388160		0.53739834		 0.00022478		 0.00041209		 0.00065831	
O		2.35783425		6.01094216		3.08189939		-0.00040412		 0.00021035		-0.00073181	
O		6.88846260		5.21826162		2.00710179		 0.00022478		 0.00041209		-0.00065831	
O		7.57293408		0.94032215		4.55160192		-0.00040412		 0.00021035		 0.00073181	
O		1.89735029		7.83756065		1.40456381		 0.00052760		-0.00049808		-0.00059870	
O		3.17975806		-0.17748995		3.94906394		 0.00018448		-0.00028244		 0.00030531	
O		7.11245013		2.76694064		1.13993632		 0.00052760		-0.00049808		 0.00059870	
O		7.00365796		3.44689007		3.68443646		 0.00018448		-0.00028244		-0.00030531	
O		6.67567403		6.63076924		4.45338442		 0.00011855		 0.00083851		-0.00065625	
O		7.81284128		-0.47652446		1.90888429		 0.00001766		-0.00009798		 0.00008744	
O		2.85177413		3.00638922		3.18011598		 0.00011855		 0.00083851		 0.00065625	
O		2.59774144		4.59409647		0.63561584		 0.00001766		-0.00009798		-0.00008744	
O		4.55910543		5.71211545		4.87882516		-0.00029939		-0.00045647		-0.00024649	
O		5.28336372		1.18549837		2.33432411		-0.00028736		 0.00012519		 0.00011702	
O		0.73520461		2.08773543		2.75467616		-0.00029939		-0.00045647		 0.00024649	
O		0.06826389		6.25611838		0.21017602		-0.00028736		 0.00012519		-0.00011702	
O		4.51880417		7.34018163		2.86103611		 0.00044891		 0.00000364		 0.00029218	
O		5.77561378		-0.51488141		0.31653598		-0.00011947		-0.00006007		 0.00004278	
O		0.69490426		3.71580161		4.77246429		 0.00044891		 0.00000364		-0.00029218	
O		0.56051394		4.55573860		2.22796415		-0.00011947		-0.00006007		-0.00004278	
Si		2.55847183		0.34214695		0.34808788		-0.00039406		-0.00024668		 0.00022394	
Si		1.41407112		7.49465393		2.89258801		-0.00051793		-0.00041986		-0.00047369	
Si		6.38237174		3.96652697		2.19641317		-0.00039406		-0.00024668		-0.00022394	
Si		6.62917004		2.42403391		4.74091239		-0.00051793		-0.00041986		 0.00047369	
Si		5.07792488		6.90081222		4.38671790		 0.00019760		-0.00001710		 0.00028250	
Si		6.21982198		-0.23604422		1.84221777		 0.00006100		 0.00004071		 0.00011530	
Si		1.25402589		3.27643220		3.24678158		 0.00019760		-0.00001710		-0.00028250	
Si		1.00472306		4.83457579		0.70228236		 0.00006100		 0.00004071		-0.00011530	
Mg		8.88270764		-0.60703532		3.64372418		-0.00018716		 0.00031462		-0.00020664	
Mg		7.75889603		6.41678608		1.09922405		 0.00024478		 0.00025433		 0.00038624	
Mg		3.66760780		4.46358469		3.98977622		-0.00018716		 0.00031462		 0.00020664	
Mg		3.93499704		2.79240607		1.44527608		 0.00024478		 0.00025433		-0.00038624	
Mg		-0.31123400		2.27549888		1.09464432		 0.00084676		 0.00030771		-0.00019395	
Mg		-0.97149782		6.40214614		3.63914445		 0.00030268		-0.00047343		-0.00010623	
Mg		3.51266499		5.89987890		1.44985581		 0.00084676		 0.00030771		 0.00019395	
Mg		4.24360202		1.33152613		3.99435595		 0.00030268		-0.00047343		 0.00010623	
