# total energy = -24709.1411688 eV	

CRYSTAL	
PRIMVEC	
		9.03900142		-1.08467799		0.00000000	
		-1.04340114		8.69500341		0.00000000	
		0.00000000		0.00000000		5.08899648	
PRIMCOORD
   40 1	
O		1.00356907		0.62000210		0.29974238		 0.00009829		 0.00057372		-0.00042486	
O		0.14046874		7.81250460		2.84424153		-0.00021477		 0.00009108		-0.00011616	
O		5.00136921		4.42516208		2.24475768		 0.00009829		 0.00057372		 0.00042486	
O		5.18166819		2.92266572		4.78925774		-0.00021477		 0.00009108		 0.00011616	
O		3.15012172		1.73015356		0.53739833		-0.00049808		-0.00000487		 0.00006043	
O		2.62007475		6.14721413		3.08189931		 0.00031305		 0.00026391		 0.00016438	
O		7.14792186		5.53531355		2.00710173		-0.00049808		-0.00000487		-0.00006043	
O		7.66127511		1.25737434		4.55160179		 0.00031305		 0.00026391		-0.00016438	
O		2.23155073		7.96692680		1.40456354		-0.00018488		 0.00034588		 0.00019030	
O		3.19335681		-0.04812385		3.94906360		 0.00056601		-0.00005770		-0.00059293	
O		7.27275110		3.07708701		1.13993561		-0.00018488		 0.00034588		-0.00019030	
O		7.19115695		3.75703613		3.68443567		 0.00056601		-0.00005770		 0.00059293	
O		6.99171986		6.94836278		4.45338401		 0.00021682		-0.00020676		 0.00038007	
O		7.84459475		-0.15892861		1.90888395		 0.00004479		 0.00022747		 0.00071828	
O		2.99391972		3.14320280		3.18011617		 0.00021682		-0.00020676		-0.00038007	
O		2.80339529		4.73091027		0.63561611		 0.00004479		 0.00022747		-0.00071828	
O		4.82353737		5.93678779		4.87882504		 0.00030543		-0.00008352		-0.00008632	
O		5.36673122		1.41017060		2.33432407		 0.00027934		-0.00051386		-0.00019324	
O		0.82573814		2.13162780		2.75467605		 0.00030543		-0.00008352		 0.00008632	
O		0.32553176		6.30001130		0.21017599		 0.00027934		-0.00051386		 0.00019324	
O		4.84980471		7.57389365		2.86103631		 0.00046527		-0.00048565		-0.00006030	
O		5.79241259		-0.28116780		0.31653625		-0.00038121		 0.00024617		-0.00031884	
O		0.85200639		3.76873367		4.77246388		 0.00046527		-0.00048565		 0.00006030	
O		0.75121313		4.60867108		2.22796381		-0.00038121		 0.00024617		 0.00031884	
Si		2.58932195		0.44942239		0.34808836		 0.00007445		 0.00026122		-0.00058865	
Si		1.73102116		7.60192895		2.89258843		-0.00029262		 0.00006898		-0.00012973	
Si		6.58712118		4.25458237		2.19641261		 0.00007445		 0.00026122		 0.00058865	
Si		6.77222062		2.71208916		4.74091176		-0.00029262		 0.00006898		 0.00012973	
Si		5.39456259		7.15459134		4.38671835		-0.00008544		-0.00038694		 0.00026853	
Si		6.25098526		0.01773521		1.84221829		-0.00005287		-0.00076038		 0.00001369	
Si		1.39676336		3.34943136		3.24678183		-0.00008544		-0.00038694		-0.00026853	
Si		1.20978489		4.90757500		0.70228177		-0.00005287		-0.00076038		-0.00001369	
Mg		8.91613133		-0.24637926		3.64372418		-0.00084258		 0.00008433		-0.00019420	
Mg		8.07327340		6.77744167		1.09922411		 0.00040883		 0.00017385		 0.00014100	
Mg		3.87493188		4.64346053		3.98977601		-0.00084258		 0.00008433		 0.00019420	
Mg		4.07547326		2.97228169		1.44527595		 0.00040883		 0.00017385		-0.00014100	
Mg		-0.21986704		2.27766809		1.09464397		-0.00002141		 0.00010254		 0.00055282	
Mg		-0.71506539		6.40431591		3.63914403		-0.00019840		 0.00006055		 0.00035978	
Mg		3.77793310		6.08282808		1.44985609		-0.00002141		 0.00010254		-0.00055282	
Mg		4.32613498		1.51447521		3.99435616		-0.00019840		 0.00006055		-0.00035978	
