# total energy = -24712.8710355 eV	

CRYSTAL	
PRIMVEC	
		9.03899718		-0.72311796		0.00000000	
		-0.69559695		8.69499814		0.00000000	
		0.00000000		0.00000000		5.08900215	
PRIMCOORD
   40 1	
O		1.03361934		0.66374965		0.29974235		 0.00012292		-0.00060669		 0.00004743	
O		0.45821894		7.85625385		2.84424161		 0.00017664		-0.00001608		-0.00028109	
O		5.20531855		4.64969065		2.24475782		 0.00012292		-0.00060669		-0.00004743	
O		5.32551872		3.14719399		4.78925799		 0.00017664		-0.00001608		 0.00028109	
O		3.23568106		1.86642599		0.53739784		 0.00018700		 0.00034299		-0.00003308	
O		2.88231582		6.28348566		3.08189891		 0.00006837		-0.00081732		-0.00013642	
O		7.40738118		5.85236608		2.00710233		 0.00018700		 0.00034299		 0.00003308	
O		7.74961560		1.57442580		4.55160160		 0.00006837		-0.00081732		 0.00013642	
O		2.56575165		8.09629238		1.40456358		-0.00034855		-0.00033291		 0.00005824	
O		3.20695584		0.08124184		3.94906375		 0.00003697		 0.00009735		-0.00027676	
O		7.43305143		3.38723251		1.13993568		-0.00034855		-0.00033291		-0.00005824	
O		7.37865595		4.06718193		3.68443586		 0.00003697		 0.00009735		 0.00027676	
O		7.30776600		7.26595764		4.45338378		 0.00035396		 0.00042317		-0.00041643	
O		7.87634918		0.15866520		1.90888361		 0.00009099		 0.00055171		 0.00011030	
O		3.13606589		3.28001755		3.18011583		 0.00035396		 0.00042317		 0.00041643	
O		3.00904849		4.86772507		0.63561565		 0.00009099		 0.00055171		-0.00011030	
O		5.08797023		6.16146104		4.87882506		 0.00000518		 0.00028984		 0.00038372	
O		5.45009867		1.63484507		2.33432398		 0.00014909		 0.00046374		 0.00070787	
O		0.91627012		2.17552095		2.75467636		 0.00000518		 0.00028984		-0.00038372	
O		0.58279889		6.34390494		0.21017619		 0.00014909		 0.00046374		-0.00070787	
O		5.18080717		7.80760559		2.86103623		-0.00027465		 0.00046369		 0.00021350	
O		5.80921205		-0.04745583		0.31653606		 0.00038821		 0.00006186		 0.00035408	
O		1.00910706		3.82166550		4.77246428		-0.00027465		 0.00046369		-0.00021350	
O		0.94191226		4.66160403		2.22796411		 0.00038821		 0.00006186		-0.00035408	
Si		2.62017071		0.55669700		0.34808774		-0.00053345		 0.00019428		 0.00000982	
Si		2.04797126		7.70920369		2.89258791		 0.00007555		-0.00021537		 0.00028974	
Si		6.79187082		4.54263709		2.19641334		-0.00053345		 0.00019428		-0.00000982	
Si		6.91527104		3.00014383		4.74091169		 0.00007555		-0.00021537		-0.00028974	
Si		5.71120007		7.40836958		4.38671764		 0.00058524		-0.00018753		 0.00007269	
Si		6.28214815		0.27151404		1.84221838		 0.00008911		 0.00019012		 0.00023971	
Si		1.53949996		3.42242948		3.24678196		 0.00058524		-0.00018753		-0.00007269	
Si		1.41484837		4.98057391		0.70228179		 0.00008911		 0.00019012		-0.00023971	
Mg		8.94955434		0.11427703		3.64372380		 0.00018890		-0.00040612		 0.00054100	
Mg		8.38764875		7.13809783		1.09922363		 0.00029949		-0.00002535		-0.00029447	
Mg		4.08225456		4.82333689		3.98977580		 0.00018890		-0.00040612		-0.00054100	
Mg		4.21594864		3.15215774		1.44527563		 0.00029949		-0.00002535		 0.00029447	
Mg		-0.12850000		2.27983782		1.09464435		-0.00074503		 0.00004522		 0.00007426	
Mg		-0.45863243		6.40648508		3.63914362		-0.00091593		-0.00051658		 0.00043400	
Mg		4.04320012		6.26577700		1.44985582		-0.00074503		 0.00004522		-0.00007426	
Mg		4.40866826		1.69742522		3.99435599		-0.00091593		-0.00051658		-0.00043400	
