# total energy = -9213.92389968 eV

CRYSTAL
PRIMVEC
		5.32599971		0.00000000		0.00000000
		-2.66299986		4.15120667		0.00000000
		0.00000000		0.00000000		7.28800214
PRIMECORD
   18 1
Mg		1.76716670		0.00000000		3.31603985		-0.00049996		-0.00000000		 0.00014311
Mg		-0.88358282		1.37737010		3.31603985		 0.00003192		 0.00007917		-0.00011662
Mg		1.77941704		2.77383604		3.31603985		 0.00003192		-0.00007917		-0.00011662
Si		0.00000000		2.76747094		0.53931180		 0.00019711		 0.00002072		-0.00017320
Si		2.66299986		1.38373467		0.53931180		 0.00019711		-0.00002072		-0.00017320
H		3.10505783		0.00000000		5.33481584		-0.00016460		-0.00000000		-0.00007863
H		-1.55252892		2.42015291		5.33481584		-0.00013999		-0.00001702		-0.00015939
H		1.11047094		1.73105270		5.33481584		-0.00013999		 0.00001702		-0.00015939
H		0.00000000		0.00000000		1.43573613		 0.00012965		-0.00000000		-0.00026669
O		0.00000000		2.76747094		2.12153689		 0.00027541		-0.00022134		 0.00010687
O		2.66299986		1.38373467		2.12153689		 0.00027541		 0.00022134		 0.00010687
O		2.70028185		0.00000000		7.22969575		 0.00010542		-0.00000000		-0.00009063
O		-1.35014093		2.10466199		7.22969575		 0.00022817		-0.00009226		 0.00026934
O		1.31285893		2.04654468		7.22969575		 0.00022817		 0.00009226		 0.00026934
O		3.53646381		0.00000000		4.28534357		-0.00038131		-0.00000000		 0.00011922
O		-1.76823190		2.75640085		4.28534357		-0.00028031		 0.00044687		 0.00006604
O		0.89476795		1.39480476		4.28534357		-0.00028031		-0.00044687		 0.00006604
O		0.00000000		0.00000000		2.21555197		 0.00018620		-0.00000000		 0.00018755
