# total energy = -9215.02261933 eV

CRYSTAL
PRIMVEC
		5.32599971		0.00000000		0.00000000
		-2.66299986		4.84307534		0.00000000
		0.00000000		0.00000000		7.28800214
PRIMECORD
   18 1
Mg		1.76716670		0.00000000		3.31603985		 0.00065728		-0.00000000		 0.00020149
Mg		-0.88358282		1.60693187		3.31603985		-0.00032834		 0.00036228		-0.00035681
Mg		1.77941704		3.23614187		3.31603985		-0.00032834		-0.00036228		-0.00035681
Si		0.00000000		3.22871583		0.53931180		-0.00002580		 0.00000260		 0.00021900
Si		2.66299986		1.61435791		0.53931180		-0.00002580		-0.00000260		 0.00021900
H		3.10505783		0.00000000		5.33481584		 0.00005626		-0.00000000		-0.00042931
H		-1.55252892		2.82351164		5.33481584		-0.00008175		-0.00002922		-0.00033882
H		1.11047094		2.01956210		5.33481584		-0.00008175		 0.00002922		-0.00033882
H		0.00000000		0.00000000		1.43573613		 0.00007400		-0.00000000		 0.00013010
O		0.00000000		3.22871583		2.12153689		 0.00011216		-0.00019008		 0.00026845
O		2.66299986		1.61435791		2.12153689		 0.00011216		 0.00019008		 0.00026845
O		2.70028185		0.00000000		7.22969575		 0.00036449		0.00000000		 0.00053006
O		-1.35014093		2.45543872		7.22969575		-0.00025444		 0.00038315		 0.00058927
O		1.31285893		2.38763502		7.22969575		-0.00025444		-0.00038315		 0.00058927
O		3.53646381		0.00000000		4.28534357		-0.00084722		0.00000000		-0.00077290
O		-1.76823190		3.21580081		4.28534357		 0.00047355		-0.00067451		-0.00002959
O		0.89476795		1.62727293		4.28534357		 0.00047355		 0.00067451		-0.00002959
O		0.00000000		0.00000000		2.21555197		-0.00009554		-0.00000000		-0.00036244
