# total energy = -9215.21128391 eV

CRYSTAL
PRIMVEC
		5.32599971		0.00000000		0.00000000
		-2.66299986		4.72776212		0.00000000
		0.00000000		0.00000000		7.28800214
PRIMECORD
   18 1
Mg		1.76716670		0.00000000		3.31603985		 0.00050577		0.00000000		 0.00017130
Mg		-0.88358282		1.56867202		3.31603985		-0.00024397		 0.00037459		-0.00018235
Mg		1.77941704		3.15909063		3.31603985		-0.00024397		-0.00037459		-0.00018235
Si		0.00000000		3.15184195		0.53931180		-0.00002152		-0.00000135		 0.00002169
Si		2.66299986		1.57592071		0.53931180		-0.00002152		 0.00000135		 0.00002169
H		3.10505783		0.00000000		5.33481584		 0.00007151		-0.00000000		-0.00025701
H		-1.55252892		2.75628581		5.33481584		-0.00005595		 0.00004580		-0.00031009
H		1.11047094		1.97147685		5.33481584		-0.00005595		-0.00004580		-0.00031009
H		0.00000000		0.00000000		1.43573613		 0.00003570		-0.00000000		 0.00061150
O		0.00000000		3.15184195		2.12153689		 0.00003400		-0.00007196		 0.00023880
O		2.66299986		1.57592071		2.12153689		 0.00003400		 0.00007196		 0.00023880
O		2.70028185		0.00000000		7.22969575		 0.00046757		-0.00000000		 0.00044336
O		-1.35014093		2.39697576		7.22969575		-0.00027949		 0.00043633		 0.00042905
O		1.31285893		2.33078690		7.22969575		-0.00027949		-0.00043633		 0.00042905
O		3.53646381		0.00000000		4.28534357		-0.00086321		-0.00000000		-0.00046294
O		-1.76823190		3.13923371		4.28534357		 0.00048693		-0.00080216		-0.00018221
O		0.89476795		1.58852788		4.28534357		 0.00048693		 0.00080216		-0.00018221
O		0.00000000		0.00000000		2.21555197		-0.00005731		0.00000000		-0.00053600
