# total energy = -9214.90526687 eV

CRYSTAL
PRIMVEC
		5.32599971		0.00000000		0.00000000
		-2.66299986		4.38182779		0.00000000
		0.00000000		0.00000000		7.28800214
PRIMECORD
   18 1
Mg		1.76716670		0.00000000		3.31603985		-0.00019508		0.00000000		-0.00021112
Mg		-0.88358282		1.45389087		3.31603985		-0.00025776		-0.00029475		-0.00025024
Mg		1.77941704		2.92793798		3.31603985		-0.00025776		 0.00029475		-0.00025024
Si		0.00000000		2.92121870		0.53931180		 0.00005098		 0.00001081		 0.00007428
Si		2.66299986		1.46061015		0.53931180		 0.00005098		-0.00001081		 0.00007428
H		3.10505783		0.00000000		5.33481584		 0.00009471		0.00000000		 0.00001073
H		-1.55252892		2.55460564		5.33481584		-0.00014592		-0.00018661		 0.00032544
H		1.11047094		1.82722268		5.33481584		-0.00014592		 0.00018661		 0.00032544
H		0.00000000		0.00000000		1.43573613		 0.00009947		-0.00000000		 0.00038731
O		0.00000000		2.92121870		2.12153689		 0.00003303		 0.00003786		 0.00011291
O		2.66299986		1.46061015		2.12153689		 0.00003303		-0.00003786		 0.00011291
O		2.70028185		0.00000000		7.22969575		 0.00000805		0.00000000		 0.00007275
O		-1.35014093		2.22158686		7.22969575		 0.00002449		 0.00004636		 0.00006335
O		1.31285893		2.16024199		7.22969575		 0.00002449		-0.00004636		 0.00006335
O		3.53646381		0.00000000		4.28534357		-0.00014331		0.00000000		-0.00026803
O		-1.76823190		2.90953399		4.28534357		 0.00026457		 0.00019315		-0.00033871
O		0.89476795		1.47229486		4.28534357		 0.00026457		-0.00019315		-0.00033871
O		0.00000000		0.00000000		2.21555197		 0.00019739		0.00000000		 0.00003431
