# total energy = -8278.398578 eV

CRYSTAL
PRIMVEC
		4.21099898		0.33687907		0.00000000
		0.33687907		4.21099898		0.00000000
		0.00000000		0.00000000		4.21099898
PRIMECORD
   8 1
Mg		0.00000000		0.00000000		0.00000000		0.00000000		0.00000000		0.00000000
Mg		0.16843996		2.10549991		2.10549991		0.00000000		0.00000000		0.00000000
Mg		2.10549991		0.16843996		2.10549991		0.00000000		0.00000000		0.00000000
Mg		2.27394030		2.27394030		0.00000000		0.00000000		0.00000000		0.00000000
O		2.27394030		2.27394030		2.10549991		0.00000000		0.00000000		0.00000000
O		2.10549991		0.16843996		0.00000000		0.00000000		0.00000000		0.00000000
O		0.16843996		2.10549991		0.00000000		0.00000000		0.00000000		0.00000000
O		0.00000000		0.00000000		2.10549991		0.00000000		0.00000000		0.00000000
