# total energy = -20634.1564647 eV	

CRYSTAL	
PRIMVEC	
		10.10999973		0.00000000		0.00000000	
		0.00000000		5.76999926		0.00000000	
		0.00000000		0.00000000		4.93500428	
PRIMCOORD
   28 1	
Si		8.51261977		2.88499963		4.31911219		-0.00002335		0.00000000		 0.00018963	
Si		1.59737996		2.88499963		0.61588804		 0.00002335		0.00000000		-0.00018963	
Si		3.26148591		0.00000000		4.35464379		-0.00045644		0.00000000		-0.00013144	
Si		6.84851382		0.00000000		0.58035645		 0.00045644		0.00000000		 0.00013144	
Mg		5.05499986		2.88499963		0.00000000		0.00000000		0.00000000		0.00000000	
Mg		0.00000000		0.00000000		2.46750012		0.00000000		0.00000000		0.00000000	
Mg		0.00000000		2.88499963		2.46750012		0.00000000		0.00000000		0.00000000	
Mg		5.05499986		0.00000000		2.46750012		0.00000000		0.00000000		0.00000000	
Mg		2.50930193		1.45807933		2.46256543		 0.00000190		 0.00015648		 0.00006022	
Mg		7.60069780		4.31192095		2.47243481		-0.00000190		-0.00015648		-0.00006022	
Mg		7.60069780		1.45807933		2.47243481		-0.00000190		 0.00015648		-0.00006022	
Mg		2.50930193		4.31192095		2.46256543		 0.00000190		-0.00015648		 0.00006022	
O		3.18869391		2.88499963		1.03881663		-0.00029503		-0.00000000		 0.00087400	
O		6.92130581		2.88499963		3.89618159		 0.00029503		-0.00000000		-0.00087400	
O		1.66006196		2.88499963		3.82807861		-0.00062705		0.00000000		-0.00047533	
O		8.44993777		2.88499963		1.10692062		 0.00062705		0.00000000		 0.00047533	
O		8.39635477		0.00000000		1.15182924		 0.00058266		0.00000000		-0.00025490	
O		1.71364495		0.00000000		3.78317100		-0.00058266		0.00000000		 0.00025490	
O		3.36662991		0.00000000		1.13949099		-0.00006320		0.00000000		 0.00005998	
O		6.74336982		0.00000000		3.79550823		 0.00006320		0.00000000		-0.00005998	
O		0.86036098		1.50077689		1.12863386		 0.00065652		 0.00000551		-0.00032628	
O		9.24963875		4.26922339		3.80636536		-0.00065652		-0.00000551		 0.00032628	
O		9.24963875		1.50077689		3.80636536		-0.00065652		 0.00000551		 0.00032628	
O		0.86036098		4.26922339		1.12863386		 0.00065652		-0.00000551		-0.00032628	
O		5.99725184		1.31613695		1.09063543		-0.00020135		-0.00034490		 0.00011717	
O		4.11274789		4.45386332		3.84436480		 0.00020135		 0.00034490		-0.00011717	
O		4.11274789		1.31613695		3.84436480		 0.00020135		-0.00034490		-0.00011717	
O		5.99725184		4.45386332		1.09063543		-0.00020135		 0.00034490		 0.00011717	
