# total energy = -20628.4269059 eV	

CRYSTAL	
PRIMVEC	
		10.10999973		0.00000000		0.00000000	
		0.00000000		5.76999926		0.00000000	
		0.00000000		0.00000000		4.23000367	
PRIMCOORD
   28 1	
Si		8.51261977		2.88499963		3.70209588		-0.00091296		0.00000000		-0.00004580	
Si		1.59737996		2.88499963		0.52790375		 0.00091296		0.00000000		 0.00004580	
Si		3.26148591		0.00000000		3.73255225		 0.00089209		0.00000000		 0.00011078	
Si		6.84851382		0.00000000		0.49744838		-0.00089209		0.00000000		-0.00011078	
Mg		5.05499986		2.88499963		0.00000000		0.00000000		0.00000000		0.00000000	
Mg		0.00000000		0.00000000		2.11499981		0.00000000		0.00000000		0.00000000	
Mg		0.00000000		2.88499963		2.11499981		0.00000000		0.00000000		0.00000000	
Mg		5.05499986		0.00000000		2.11499981		0.00000000		0.00000000		0.00000000	
Mg		2.50930193		1.45807933		2.11076979		-0.00067239		-0.00018293		 0.00001660	
Mg		7.60069780		4.31192095		2.11922984		 0.00067239		 0.00018293		-0.00001660	
Mg		7.60069780		1.45807933		2.11922984		 0.00067239		-0.00018293		-0.00001660	
Mg		2.50930193		4.31192095		2.11076979		-0.00067239		 0.00018293		 0.00001660	
O		3.18869391		2.88499963		0.89041497		 0.00065504		0.00000000		-0.00017803	
O		6.92130581		2.88499963		3.33958465		-0.00065504		0.00000000		 0.00017803	
O		1.66006196		2.88499963		3.28121052		-0.00021582		0.00000000		 0.00001108	
O		8.44993777		2.88499963		0.94878910		 0.00021582		0.00000000		-0.00001108	
O		8.39635477		0.00000000		0.98728191		-0.00007846		0.00000000		 0.00039911	
O		1.71364495		0.00000000		3.24271771		 0.00007846		0.00000000		-0.00039911	
O		3.36662991		0.00000000		0.97670685		-0.00053939		-0.00000000		 0.00024180	
O		6.74336982		0.00000000		3.25329277		 0.00053939		-0.00000000		-0.00024180	
O		0.86036098		1.50077689		0.96740060		-0.00007434		 0.00001366		 0.00051395	
O		9.24963875		4.26922339		3.26259902		 0.00007434		-0.00001366		-0.00051395	
O		9.24963875		1.50077689		3.26259902		 0.00007434		 0.00001366		-0.00051395	
O		0.86036098		4.26922339		0.96740060		-0.00007434		-0.00001366		 0.00051395	
O		5.99725184		1.31613695		0.93483022		 0.00001808		 0.00052924		-0.00013896	
O		4.11274789		4.45386332		3.29517041		-0.00001808		-0.00052924		 0.00013896	
O		4.11274789		1.31613695		3.29517041		-0.00001808		 0.00052924		 0.00013896	
O		5.99725184		4.45386332		0.93483022		 0.00001808		-0.00052924		-0.00013896	
