# total energy = -20632.9528312 eV	

CRYSTAL	
PRIMVEC	
		10.10999973		0.00000000		0.00000000	
		0.00000000		5.76999926		0.00000000	
		0.00000000		0.00000000		5.17000111	
PRIMCOORD
   28 1	
Si		8.51261977		2.88499963		4.52478396		-0.00011978		0.00000000		-0.00013528	
Si		1.59737996		2.88499963		0.64521614		 0.00011978		0.00000000		 0.00013528	
Si		3.26148591		0.00000000		4.56200797		-0.00013225		0.00000000		-0.00040444	
Si		6.84851382		0.00000000		0.60799213		 0.00013225		0.00000000		 0.00040444	
Mg		5.05499986		2.88499963		0.00000000		0.00000000		0.00000000		0.00000000	
Mg		0.00000000		0.00000000		2.58499954		0.00000000		0.00000000		0.00000000	
Mg		0.00000000		2.88499963		2.58499954		0.00000000		0.00000000		0.00000000	
Mg		5.05499986		0.00000000		2.58499954		0.00000000		0.00000000		0.00000000	
Mg		2.50930193		1.45807933		2.57983030		-0.00064809		-0.00012977		-0.00033659	
Mg		7.60069780		4.31192095		2.59016980		 0.00064809		 0.00012977		 0.00033659	
Mg		7.60069780		1.45807933		2.59016980		 0.00064809		-0.00012977		 0.00033659	
Mg		2.50930193		4.31192095		2.57983030		-0.00064809		 0.00012977		-0.00033659	
O		3.18869391		2.88499963		1.08828485		-0.00009392		-0.00000000		 0.00044532	
O		6.92130581		2.88499963		4.08171525		 0.00009392		-0.00000000		-0.00044532	
O		1.66006196		2.88499963		4.01036898		-0.00018092		-0.00000000		 0.00036397	
O		8.44993777		2.88499963		1.15963112		 0.00018092		-0.00000000		-0.00036397	
O		8.39635477		0.00000000		1.20667801		 0.00075262		0.00000000		-0.00035214	
O		1.71364495		0.00000000		3.96332209		-0.00075262		0.00000000		 0.00035214	
O		3.36662991		0.00000000		1.19375338		-0.00029518		0.00000000		-0.00060765	
O		6.74336982		0.00000000		3.97624672		 0.00029518		0.00000000		 0.00060765	
O		0.86036098		1.50077689		1.18237862		 0.00015668		 0.00024481		 0.00084253	
O		9.24963875		4.26922339		3.98762047		-0.00015668		-0.00024481		-0.00084253	
O		9.24963875		1.50077689		3.98762047		-0.00015668		 0.00024481		-0.00084253	
O		0.86036098		4.26922339		1.18237862		 0.00015668		-0.00024481		 0.00084253	
O		5.99725184		1.31613695		1.14256949		 0.00005574		 0.00016648		-0.00007938	
O		4.11274789		4.45386332		4.02742960		-0.00005574		-0.00016648		 0.00007938	
O		4.11274789		1.31613695		4.02742960		-0.00005574		 0.00016648		 0.00007938	
O		5.99725184		4.45386332		1.14256949		 0.00005574		-0.00016648		-0.00007938	
