# total energy = -20634.2772476 eV	

CRYSTAL	
PRIMVEC	
		10.10999973		0.00000000		0.00000000	
		0.00000000		5.76999926		0.00000000	
		0.00000000		0.00000000		4.81749575	
PRIMCOORD
   28 1	
Si		8.51261977		2.88499963		4.21627631		 0.00045468		0.00000000		-0.00052576	
Si		1.59737996		2.88499963		0.60122349		-0.00045468		0.00000000		 0.00052576	
Si		3.26148591		0.00000000		4.25096170		-0.00076061		0.00000000		 0.00073725	
Si		6.84851382		0.00000000		0.56653810		 0.00076061		0.00000000		-0.00073725	
Mg		5.05499986		2.88499963		0.00000000		0.00000000		0.00000000		0.00000000	
Mg		0.00000000		0.00000000		2.40874990		0.00000000		0.00000000		0.00000000	
Mg		0.00000000		2.88499963		2.40874990		0.00000000		0.00000000		0.00000000	
Mg		5.05499986		0.00000000		2.40874990		0.00000000		0.00000000		0.00000000	
Mg		2.50930193		1.45807933		2.40393147		 0.00056116		 0.00021228		 0.00080281	
Mg		7.60069780		4.31192095		2.41356731		-0.00056116		-0.00021228		-0.00080281	
Mg		7.60069780		1.45807933		2.41356731		-0.00056116		 0.00021228		-0.00080281	
Mg		2.50930193		4.31192095		2.40393147		 0.00056116		-0.00021228		 0.00080281	
O		3.18869391		2.88499963		1.01408352		-0.00014277		0.00000000		 0.00059387	
O		6.92130581		2.88499963		3.80341627		 0.00014277		0.00000000		-0.00059387	
O		1.66006196		2.88499963		3.73693392		-0.00072420		0.00000000		 0.00042317	
O		8.44993777		2.88499963		1.08056486		 0.00072420		0.00000000		-0.00042317	
O		8.39635477		0.00000000		1.12440384		 0.00014379		0.00000000		-0.00027609	
O		1.71364495		0.00000000		3.69309494		-0.00014379		0.00000000		 0.00027609	
O		3.36662991		0.00000000		1.11236081		-0.00045931		-0.00000000		 0.00089498	
O		6.74336982		0.00000000		3.70513899		 0.00045931		-0.00000000		-0.00089498	
O		0.86036098		1.50077689		1.10176148		-0.00005331		-0.00042045		-0.00021220	
O		9.24963875		4.26922339		3.71573831		 0.00005331		 0.00042045		 0.00021220	
O		9.24963875		1.50077689		3.71573831		 0.00005331		-0.00042045		 0.00021220	
O		0.86036098		4.26922339		1.10176148		-0.00005331		 0.00042045		-0.00021220	
O		5.99725184		1.31613695		1.06466688		 0.00020712		-0.00042981		-0.00017681	
O		4.11274789		4.45386332		3.75283190		-0.00020712		 0.00042981		 0.00017681	
O		4.11274789		1.31613695		3.75283190		-0.00020712		-0.00042981		 0.00017681	
O		5.99725184		4.45386332		1.06466688		 0.00020712		 0.00042981		-0.00017681	
