# total energy = -20633.6986857 eV	

CRYSTAL	
PRIMVEC	
		10.10999973		0.00000000		0.00000000	
		0.00000000		5.76999926		0.00000000	
		0.00000000		0.00000000		5.05250269	
PRIMCOORD
   28 1	
Si		8.51261977		2.88499963		4.42194808		-0.00020666		0.00000000		-0.00009543	
Si		1.59737996		2.88499963		0.63055158		 0.00020666		0.00000000		 0.00009543	
Si		3.26148591		0.00000000		4.45832588		-0.00016729		-0.00000000		-0.00039463	
Si		6.84851382		0.00000000		0.59417378		 0.00016729		-0.00000000		 0.00039463	
Mg		5.05499986		2.88499963		0.00000000		0.00000000		0.00000000		0.00000000	
Mg		0.00000000		0.00000000		2.52625034		0.00000000		0.00000000		0.00000000	
Mg		0.00000000		2.88499963		2.52625034		0.00000000		0.00000000		0.00000000	
Mg		5.05499986		0.00000000		2.52625034		0.00000000		0.00000000		0.00000000	
Mg		2.50930193		1.45807933		2.52119736		-0.00033073		-0.00005958		-0.00019875	
Mg		7.60069780		4.31192095		2.53130230		 0.00033073		 0.00005958		 0.00019875	
Mg		7.60069780		1.45807933		2.53130230		 0.00033073		-0.00005958		 0.00019875	
Mg		2.50930193		4.31192095		2.52119736		-0.00033073		 0.00005958		-0.00019875	
O		3.18869391		2.88499963		1.06355074		 0.00007667		0.00000000		 0.00062489	
O		6.92130581		2.88499963		3.98894892		-0.00007667		0.00000000		-0.00062489	
O		1.66006196		2.88499963		3.91922430		-0.00051843		-0.00000000		-0.00001642	
O		8.44993777		2.88499963		1.13327638		 0.00051843		-0.00000000		 0.00001642	
O		8.39635477		0.00000000		1.17925261		 0.00053556		-0.00000000		-0.00008768	
O		1.71364495		0.00000000		3.87324604		-0.00053556		-0.00000000		 0.00008768	
O		3.36662991		0.00000000		1.16662219		-0.00018012		0.00000000		-0.00034488	
O		6.74336982		0.00000000		3.88587747		 0.00018012		0.00000000		 0.00034488	
O		0.86036098		1.50077689		1.15550725		 0.00041239		 0.00008800		 0.00032826	
O		9.24963875		4.26922339		3.89699241		-0.00041239		-0.00008800		-0.00032826	
O		9.24963875		1.50077689		3.89699241		-0.00041239		 0.00008800		-0.00032826	
O		0.86036098		4.26922339		1.15550725		 0.00041239		-0.00008800		 0.00032826	
O		5.99725184		1.31613695		1.11660195		-0.00010275		 0.00001946		 0.00014216	
O		4.11274789		4.45386332		3.93589670		 0.00010275		-0.00001946		-0.00014216	
O		4.11274789		1.31613695		3.93589670		 0.00010275		 0.00001946		-0.00014216	
O		5.99725184		4.45386332		1.11660195		-0.00010275		-0.00001946		 0.00014216	
