# total energy = -20630.5861132 eV	

CRYSTAL	
PRIMVEC	
		10.10999973		0.00000000		0.00000000	
		0.00000000		5.76999926		0.00000000	
		0.00000000		0.00000000		4.34750208	
PRIMCOORD
   28 1	
Si		8.51261977		2.88499963		3.80493176		-0.00011695		-0.00000000		-0.00034391	
Si		1.59737996		2.88499963		0.54256830		 0.00011695		-0.00000000		 0.00034391	
Si		3.26148591		0.00000000		3.83623434		 0.00004599		0.00000000		 0.00014966	
Si		6.84851382		0.00000000		0.51126572		-0.00004599		0.00000000		-0.00014966	
Mg		5.05499986		2.88499963		0.00000000		0.00000000		0.00000000		0.00000000	
Mg		0.00000000		0.00000000		2.17375003		0.00000000		0.00000000		0.00000000	
Mg		0.00000000		2.88499963		2.17375003		0.00000000		0.00000000		0.00000000	
Mg		5.05499986		0.00000000		2.17375003		0.00000000		0.00000000		0.00000000	
Mg		2.50930193		1.45807933		2.16940172		-0.00029907		-0.00011919		 0.00018660	
Mg		7.60069780		4.31192095		2.17809733		 0.00029907		 0.00011919		-0.00018660	
Mg		7.60069780		1.45807933		2.17809733		 0.00029907		-0.00011919		-0.00018660	
Mg		2.50930193		4.31192095		2.16940172		-0.00029907		 0.00011919		 0.00018660	
O		3.18869391		2.88499963		0.91514909		 0.00059619		0.00000000		 0.00020584	
O		6.92130581		2.88499963		3.43235097		-0.00059619		0.00000000		-0.00020584	
O		1.66006196		2.88499963		3.37235520		-0.00019888		0.00000000		-0.00026225	
O		8.44993777		2.88499963		0.97514385		 0.00019888		0.00000000		 0.00026225	
O		8.39635477		0.00000000		1.01470630		-0.00024808		0.00000000		-0.00022916	
O		1.71364495		0.00000000		3.33279275		 0.00024808		0.00000000		 0.00022916	
O		3.36662991		0.00000000		1.00383805		-0.00022112		0.00000000		 0.00072128	
O		6.74336982		0.00000000		3.34366201		 0.00022112		0.00000000		-0.00072128	
O		0.86036098		1.50077689		0.99427298		-0.00005150		-0.00003386		 0.00001508	
O		9.24963875		4.26922339		3.35322708		 0.00005150		 0.00003386		-0.00001508	
O		9.24963875		1.50077689		3.35322708		 0.00005150		-0.00003386		-0.00001508	
O		0.86036098		4.26922339		0.99427298		-0.00005150		 0.00003386		 0.00001508	
O		5.99725184		1.31613695		0.96079675		 0.00001315		 0.00024874		-0.00004980	
O		4.11274789		4.45386332		3.38670230		-0.00001315		-0.00024874		 0.00004980	
O		4.11274789		1.31613695		3.38670230		-0.00001315		 0.00024874		 0.00004980	
O		5.99725184		4.45386332		0.96079675		 0.00001315		-0.00024874		-0.00004980	
