# total energy = -12354.6766148 eV	

CRYSTAL	
PRIMVEC	
		4.78365482		0.00000000		0.00000000	
		0.00000000		4.95119644		0.00000000	
		0.00000000		0.00000000		6.92113171	
PRIMCOORD
   20 1	
O		0.50204302		2.30616841		1.73028271		-0.00007014		-0.00034211		 0.00000006	
O		4.28161269		2.64502848		5.19084812		 0.00006995		 0.00034213		-0.00000009	
O		2.89387087		0.16943026		5.19084812		-0.00007007		 0.00034214		-0.00000009	
O		1.88978483		4.78176663		1.73028271		 0.00006997		-0.00034214		 0.00000008	
O		0.93668224		0.99443394		3.83465487		-0.00004276		-0.00012702		-0.00002622	
O		3.84697302		3.95676294		3.08647595		 0.00004291		 0.00012691		 0.00002613	
O		3.32851010		1.48116472		3.08647595		-0.00004282		 0.00012686		 0.00002617	
O		1.45514517		3.47003216		3.83465487		 0.00004279		-0.00012682		-0.00002625	
O		3.84697302		3.95676250		0.37408946		 0.00004281		 0.00012692		-0.00002613	
O		0.93668269		0.99443394		6.54704092		-0.00004288		-0.00012698		 0.00002612	
O		1.45514561		3.47003171		6.54704092		 0.00004290		-0.00012686		 0.00002613	
O		3.32851010		1.48116428		0.37408946		-0.00004276		 0.00012690		-0.00002615	
Mg		2.46904688		2.76984572		1.73028226		-0.00030783		 0.00000514		-0.00000002	
Mg		2.31460838		2.18135072		5.19084767		 0.00030786		-0.00000508		 0.00000016	
Mg		0.07721947		4.65694894		5.19084767		-0.00030769		-0.00000513		 0.00000017	
Mg		4.70643579		0.29424794		1.73028226		 0.00030782		 0.00000510		-0.00000004	
Si		2.39182741		0.00000000		3.46056541		-0.00000000		 0.00000002		-0.00000003	
Si		0.00000000		2.47559822		3.46056541		-0.00000002		 0.00000002		 0.00000010	
Si		2.39182785		0.00000000		0.00000000		-0.00000005		-0.00000001		 0.00000002	
Si		0.00000000		2.47559822		0.00000000		-0.00000000		-0.00000002		-0.00000011	
