# total energy = -12354.6377607 eV	

CRYSTAL	
PRIMVEC	
		4.76645750		0.00000000		0.00000000	
		0.00000000		4.93671940		0.00000000	
		0.00000000		0.00000000		6.89629805	
PRIMCOORD
   20 1	
O		0.50195590		2.29957884		1.72407496		-0.00004378		-0.00028904		-0.00000038	
O		4.26450293		2.63714011		5.17222532		 0.00004382		 0.00028883		 0.00000034	
O		2.88518554		0.16878041		5.17222532		-0.00004336		 0.00028897		 0.00000035	
O		1.88127329		4.76793810		1.72407496		 0.00004333		-0.00028867		-0.00000032	
O		0.93121990		0.98980102		3.82177399		-0.00001238		-0.00011705		-0.00004408	
O		3.83523893		3.94691793		3.07452628		 0.00001259		 0.00011707		 0.00004397	
O		3.31444999		1.47855868		3.07452628		-0.00001234		 0.00011791		 0.00004415	
O		1.45200929		3.45816028		3.82177399		 0.00001207		-0.00011797		-0.00004425	
O		3.83523893		3.94691793		0.37362363		 0.00001277		 0.00011722		-0.00004420	
O		0.93121990		0.98980102		6.52267620		-0.00001279		-0.00011678		 0.00004451	
O		1.45200929		3.45816028		6.52267620		 0.00001225		-0.00011830		 0.00004440	
O		3.31444954		1.47855868		0.37362363		-0.00001197		 0.00011783		-0.00004452	
Mg		2.46112251		2.76450206		1.72407496		-0.00033052		-0.00001106		 0.00000011	
Mg		2.30533721		2.17221690		5.17222532		 0.00033044		 0.00001114		-0.00000021	
Mg		0.07789243		4.64057615		5.17222487		-0.00033035		 0.00001071		-0.00000008	
Mg		4.68856685		0.29614280		1.72407496		 0.00033033		-0.00001076		 0.00000016	
Si		2.38322964		0.00000000		3.44814992		 0.00000002		 0.00000001		 0.00000008	
Si		0.00000000		2.46835925		3.44814992		-0.00000009		 0.00000008		 0.00000010	
Si		2.38322964		0.00000000		0.00000000		-0.00000000		-0.00000031		-0.00000009	
Si		0.00000000		2.46835925		0.00000000		0.00000000		 0.00000018		-0.00000006	
