# total energy = -12354.5500123 eV	

CRYSTAL	
PRIMVEC	
		4.86069383		0.00000000		0.00000000	
		0.00000000		5.01765658		0.00000000	
		0.00000000		0.00000000		7.03384549	
PRIMCOORD
   20 1	
O		0.50223593		2.33752540		1.75846070		 0.00030323		-0.00093819		-0.00000023	
O		4.35845656		2.68013030		5.27538300		-0.00030350		 0.00093868		 0.00000024	
O		2.93258240		0.17130245		5.27538300		 0.00030323		 0.00093833		 0.00000012	
O		1.92811010		4.84635369		1.75846115		-0.00030340		-0.00093873		-0.00000016	
O		0.96155946		1.01615528		3.89358980		-0.00016946		-0.00019185		-0.00011125	
O		3.89913304		4.00150086		3.14025391		 0.00016959		 0.00019157		 0.00011128	
O		3.39190548		1.49267301		3.14025391		-0.00016876		 0.00019235		 0.00011128	
O		1.46878745		3.52498313		3.89358980		 0.00016902		-0.00019218		-0.00011151	
O		3.89913304		4.00150086		0.37666795		 0.00016956		 0.00019135		-0.00011151	
O		0.96155946		1.01615528		6.65717576		-0.00016937		-0.00019158		 0.00011151	
O		1.46878745		3.52498313		6.65717576		 0.00016894		-0.00019211		 0.00011164	
O		3.39190548		1.49267257		0.37666795		-0.00016888		 0.00019236		-0.00011128	
Mg		2.50561641		2.79548034		1.75846115		-0.00037376		 0.00028757		 0.00000018	
Mg		2.35507609		2.22217535		5.27538300		 0.00037374		-0.00028767		-0.00000021	
Mg		0.07527083		4.73100320		5.27538300		-0.00037368		-0.00028746		-0.00000027	
Mg		4.78542167		0.28665338		1.75846115		 0.00037373		 0.00028752		 0.00000023	
Si		2.43034602		0.00000000		3.51692185		-0.00000005		 0.00000026		-0.00000008	
Si		0.00000000		2.50882785		3.51692230		-0.00000006		-0.00000024		 0.00000024	
Si		2.43034602		0.00000000		0.00000000		-0.00000008		 0.00000027		 0.00000006	
Si		0.00000000		2.50882785		0.00000000		-0.00000004		-0.00000028		-0.00000027	
