# total energy = -12354.6305278 eV	

CRYSTAL	
PRIMVEC	
		4.84013616		0.00000000		0.00000000	
		0.00000000		4.99968141		0.00000000	
		0.00000000		0.00000000		7.00365573	
PRIMCOORD
   20 1	
O		0.50201502		2.32910454		1.75091371		 0.00025665		-0.00081011		-0.00000006	
O		4.33812026		2.67057465		5.25274068		-0.00025662		 0.00081018		 0.00000009	
O		2.92208310		0.17073484		5.25274068		 0.00025669		 0.00081014		 0.00000005	
O		1.91805218		4.82894435		1.75091371		-0.00025664		-0.00081014		0.00000000	
O		0.95487744		1.01028001		3.87774284		-0.00012286		-0.00018819		-0.00009906	
O		3.88525783		3.98939918		3.12591111		 0.00012295		 0.00018819		 0.00009908	
O		3.37494552		1.48955936		3.12591111		-0.00012274		 0.00018852		 0.00009907	
O		1.46518975		3.51011982		3.87774284		 0.00012272		-0.00018854		-0.00009897	
O		3.88525783		3.98939962		0.37591587		 0.00012288		 0.00018816		-0.00009911	
O		0.95487788		1.01028001		6.62773808		-0.00012291		-0.00018816		 0.00009911	
O		1.46518975		3.51011982		6.62773852		 0.00012277		-0.00018855		 0.00009894	
O		3.37494552		1.48955936		0.37591587		-0.00012266		 0.00018852		-0.00009911	
Mg		2.49590119		2.78826805		1.75091371		-0.00041727		 0.00026633		-0.00000003	
Mg		2.34423409		2.21141158		5.25274068		 0.00041707		-0.00026659		 0.00000002	
Mg		0.07583311		4.71125140		5.25274068		-0.00041726		-0.00026678		 0.00000009	
Mg		4.76430217		0.28842779		1.75091371		 0.00041723		 0.00026704		-0.00000009	
Si		2.42006764		0.00000000		3.50182697		 0.00000008		 0.00000008		-0.00000002	
Si		0.00000000		2.49983982		3.50182697		-0.00000007		-0.00000004		-0.00000001	
Si		2.42006808		0.00000000		0.00000000		-0.00000006		 0.00000003		 0.00000001	
Si		0.00000000		2.49983982		0.00000000		 0.00000005		-0.00000009		-0.00000000	
