# total energy = -41261.4126275 eV	

CRYSTAL	
PRIMVEC	
		5.69780014		0.00000000		0.00000000	
		0.00000000		11.46200244		-1.83392244	
		0.00000000		-1.32113752		8.25709812	
PRIMCOORD
   56 1	
Mg		0.00000000		0.00000000		0.00000000		0.00000000		0.00000000		0.00000000	
Mg		0.00000000		5.73100008		-0.91696008		0.00000000		0.00000000		0.00000000	
Mg		2.84890007		5.07043189		3.21159012		0.00000000		0.00000000		0.00000000	
Mg		2.84890007		-0.66056819		4.12855020		0.00000000		0.00000000		0.00000000	
Mg		0.00000000		1.58426193		7.54925642		0.00000000		-0.00027032		 0.00012536	
Mg		0.00000000		8.55660242		-1.12607618		0.00000000		 0.00027032		-0.00012536	
Mg		2.84890007		7.97583021		2.50374614		0.00000000		-0.00027032		 0.00012536	
Mg		2.84890007		2.16503414		3.91943524		0.00000000		 0.00027032		-0.00012536	
Mg		1.42445004		1.12424377		1.83155102		 0.00032340		-0.00002436		-0.00037383	
Mg		4.27335011		9.01662001		4.59163036		-0.00032340		 0.00002436		 0.00037383	
Mg		4.27335011		3.94618812		1.38004024		 0.00032339		 0.00002437		 0.00037386	
Mg		1.42445004		6.19467623		5.04314114		-0.00032339		-0.00002437		-0.00037386	
Mg		4.27335011		6.19467623		5.04314114		 0.00032339		-0.00002437		-0.00037386	
Mg		1.42445004		3.94618812		1.38004024		-0.00032339		 0.00002437		 0.00037386	
Mg		1.42445004		9.01662001		4.59163036		 0.00032340		 0.00002436		 0.00037383	
Mg		4.27335011		1.12424377		1.83155102		-0.00032340		-0.00002436		-0.00037383	
Si		0.00000000		0.55981285		4.87061517		0.00000000		 0.00074464		 0.00090146	
Si		0.00000000		9.58105150		1.55256507		0.00000000		-0.00074464		-0.00090146	
Si		0.00000000		3.54222605		4.39342896		0.00000000		 0.00016213		 0.00003343	
Si		0.00000000		6.59863830		2.02975127		0.00000000		-0.00016213		-0.00003343	
Si		2.84890007		6.95138113		-0.17489511		0.00000000		 0.00074452		 0.00090166	
Si		2.84890007		3.18948322		6.59807535		0.00000000		-0.00074452		-0.00090166	
Si		2.84890007		9.93379433		-0.65208075		0.00000000		 0.00016241		 0.00003379	
Si		2.84890007		0.20707002		7.07526099		0.00000000		-0.00016241		-0.00003379	
O		0.00000000		2.57722782		1.34321878		0.00000000		 0.00040409		 0.00006086	
O		0.00000000		7.56363596		5.07996089		0.00000000		-0.00040409		-0.00006086	
O		2.84890007		7.64766028		4.55480890		0.00000000		 0.00040408		 0.00006091	
O		2.84890007		2.49320407		1.86837077		0.00000000		-0.00040408		-0.00006091	
O		0.00000000		1.91996321		5.45112642		0.00000000		 0.00019596		 0.00024286	
O		0.00000000		8.22090114		0.97205382		0.00000000		-0.00019596		-0.00024286	
O		2.84890007		8.31153149		0.40561614		0.00000000		 0.00019597		 0.00024282	
O		2.84890007		1.82933286		6.01756410		0.00000000		-0.00019597		-0.00024282	
O		0.00000000		11.00621604		0.30273210		0.00000000		-0.00017313		-0.00074557	
O		0.00000000		-0.86535226		6.12044814		0.00000000		 0.00017313		 0.00074557	
O		0.00000000		5.50904114		1.18227985		0.00000000		-0.00014557		 0.00042855	
O		0.00000000		4.63182321		5.24090038		0.00000000		 0.00014557		-0.00042855	
O		2.84890007		4.61464833		5.34824238		0.00000000		-0.00017320		-0.00074544	
O		2.84890007		5.52621602		1.07493786		0.00000000		 0.00017320		 0.00074544	
O		2.84890007		-0.88252714		6.22779014		0.00000000		-0.00014526		 0.00042882	
O		2.84890007		11.02339149		0.19539010		0.00000000		 0.00014526		-0.00042882	
O		1.48199782		0.09322114		7.97528721		 0.00050872		 0.00017196		 0.00002849	
O		4.21580232		10.04764321		-1.55210697		-0.00050872		-0.00017196		-0.00002849	
O		4.21580232		3.01373914		7.50800492		-0.00087710		 0.00047341		 0.00012430	
O		1.48199782		7.12712521		-1.08482525		 0.00087710		-0.00047341		-0.00012430	
O		4.21580232		7.12712521		-1.08482525		-0.00087710		-0.00047341		-0.00012430	
O		1.48199782		3.01373914		7.50800492		 0.00087710		 0.00047341		 0.00012430	
O		1.48199782		10.04764321		-1.55210697		 0.00050872		-0.00017196		-0.00002849	
O		4.21580232		0.09322114		7.97528721		-0.00050872		 0.00017196		 0.00002849	
O		4.33089789		6.48478941		2.92977692		 0.00050881		 0.00017196		 0.00002844	
O		1.36690225		3.65607494		3.49340331		-0.00050881		-0.00017196		-0.00002844	
O		1.36690225		9.40530627		2.46249521		-0.00087717		 0.00047341		 0.00012424	
O		4.33089789		0.73555694		3.96068617		 0.00087717		-0.00047341		-0.00012424	
O		1.36690225		0.73555694		3.96068617		-0.00087717		-0.00047341		-0.00012424	
O		4.33089789		9.40530627		2.46249521		 0.00087717		 0.00047341		 0.00012424	
O		4.33089789		3.65607494		3.49340331		 0.00050881		-0.00017196		-0.00002844	
O		1.36690225		6.48478941		2.92977692		-0.00050881		 0.00017196		 0.00002844	
