# total energy = -41274.3500408 eV	

CRYSTAL	
PRIMVEC	
		5.69780014		0.00000000		0.00000000	
		0.00000000		11.46200244		0.45847919	
		0.00000000		0.33028438		8.25709812	
PRIMCOORD
   56 1	
Mg		0.00000000		0.00000000		0.00000000		0.00000000		0.00000000		0.00000000	
Mg		0.00000000		5.73100008		0.22924016		0.00000000		0.00000000		0.00000000	
Mg		2.84890007		5.89614227		4.35779036		0.00000000		0.00000000		0.00000000	
Mg		2.84890007		0.16514219		4.12855020		0.00000000		0.00000000		0.00000000	
Mg		0.00000000		3.18580928		8.12235598		0.00000000		 0.00004420		 0.00004649	
Mg		0.00000000		8.60647412		0.59322418		0.00000000		-0.00004420		-0.00004649	
Mg		2.84890007		8.75166718		4.22304594		0.00000000		 0.00004422		 0.00004648	
Mg		2.84890007		3.04061680		4.49253536		0.00000000		-0.00004422		-0.00004648	
Mg		1.42445004		1.53709896		2.12245619		-0.00029774		 0.00018468		 0.00021866	
Mg		4.27335011		10.25518501		6.59312397		 0.00029774		-0.00018468		-0.00021866	
Mg		4.27335011		4.35904331		2.23533417		-0.00029773		-0.00018470		-0.00021868	
Mg		1.42445004		7.43324124		6.48024599		 0.00029773		 0.00018470		 0.00021868	
Mg		4.27335011		7.43324124		6.48024599		-0.00029773		 0.00018470		 0.00021868	
Mg		1.42445004		4.35904331		2.23533417		 0.00029773		-0.00018470		-0.00021868	
Mg		1.42445004		10.25518501		6.59312397		-0.00029774		-0.00018468		-0.00021866	
Mg		4.27335011		1.53709896		2.12245619		 0.00029774		 0.00018468		 0.00021866	
Si		0.00000000		1.57791401		5.14547420		0.00000000		-0.00014272		-0.00039476	
Si		0.00000000		10.21437053		3.57010596		0.00000000		 0.00014272		 0.00039476	
Si		0.00000000		4.56032608		5.26477132		0.00000000		-0.00021923		-0.00054371	
Si		0.00000000		7.23195790		3.45080884		0.00000000		 0.00021923		 0.00054371	
Si		2.84890007		7.14377191		1.24616416		0.00000000		-0.00014259		-0.00039492	
Si		2.84890007		4.64851207		7.46941600		0.00000000		 0.00014259		 0.00039492	
Si		2.84890007		10.12618397		1.36546128		0.00000000		-0.00021920		-0.00054382	
Si		2.84890007		1.66610001		7.35012002		0.00000000		 0.00021920		 0.00054382	
O		0.00000000		2.93756810		1.91631890		0.00000000		-0.00023655		-0.00003594	
O		0.00000000		8.85471645		6.79926126		0.00000000		 0.00023655		 0.00003594	
O		2.84890007		8.83371037		6.27410926		0.00000000		-0.00023657		-0.00003596	
O		2.84890007		2.95857418		2.44147089		0.00000000		 0.00023657		 0.00003596	
O		0.00000000		3.10188411		6.02422597		0.00000000		-0.00035773		-0.00048800	
O		0.00000000		8.69040044		2.69135419		0.00000000		 0.00035773		 0.00048800	
O		2.84890007		8.66774200		2.12491593		0.00000000		-0.00035776		-0.00048794	
O		2.84890007		3.12454198		6.59066423		0.00000000		 0.00035776		 0.00048794	
O		0.00000000		11.42980531		2.57174995		0.00000000		 0.00005740		-0.00053818	
O		0.00000000		0.36247923		6.14383020		0.00000000		-0.00005740		 0.00053818	
O		0.00000000		5.93263041		2.35186330		0.00000000		-0.00001403		 0.00066419	
O		0.00000000		5.85965299		6.36371743		0.00000000		 0.00001403		-0.00066419	
O		2.84890007		5.86394742		6.47105999		0.00000000		 0.00005750		-0.00053831	
O		2.84890007		5.92833712		2.24452016		0.00000000		-0.00005750		 0.00053831	
O		2.84890007		0.36677309		6.25117334		0.00000000		-0.00001407		 0.00066419	
O		2.84890007		11.42551145		2.46440682		0.00000000		 0.00001407		-0.00066419	
O		1.48199782		1.73324630		8.25633633		-0.00030452		-0.00032468		 0.00028298	
O		4.21580232		10.05903710		0.45924383		 0.00030452		 0.00032468		-0.00028298	
O		4.21580232		4.65376430		8.37315604		-0.00025370		-0.00010239		 0.00016759	
O		1.48199782		7.13852024		0.34242411		 0.00025370		 0.00010239		-0.00016759	
O		4.21580232		7.13852024		0.34242411		-0.00025370		 0.00010239		-0.00016759	
O		1.48199782		4.65376430		8.37315604		 0.00025370		-0.00010239		 0.00016759	
O		1.48199782		10.05903710		0.45924383		-0.00030452		 0.00032468		-0.00028298	
O		4.21580232		1.73324630		8.25633633		 0.00030452		-0.00032468		 0.00028298	
O		4.33089789		7.29910419		4.35702629		-0.00030455		-0.00032467		 0.00028298	
O		1.36690225		4.49318035		4.35855501		 0.00030455		 0.00032467		-0.00028298	
O		1.36690225		10.21962219		4.47384601		-0.00025365		-0.00010241		 0.00016766	
O		4.33089789		1.57266178		4.24173415		 0.00025365		 0.00010241		-0.00016766	
O		1.36690225		1.57266178		4.24173415		-0.00025365		 0.00010241		-0.00016766	
O		4.33089789		10.21962219		4.47384601		 0.00025365		-0.00010241		 0.00016766	
O		4.33089789		4.49318035		4.35855501		-0.00030455		 0.00032467		-0.00028298	
O		1.36690225		7.29910419		4.35702629		 0.00030455		-0.00032467		 0.00028298	
