# total energy = -22467.1319398 eV	

CRYSTAL	
PRIMVEC	
		9.73970004		0.00000000		0.00000000	
		0.00000000		8.91739665		0.71339407	
		-1.43536881		0.40402224		5.05028771	
PRIMCOORD
   40 1	
Mg		-0.35884269		8.19871782		1.91038762		-0.00004104		 0.00000825		-0.00011175	
Mg		-1.07652807		1.12270496		3.85328734		 0.00004104		-0.00000825		 0.00011175	
Mg		4.51100733		3.74001755		1.55369156		-0.00003892		-0.00001080		-0.00011512	
Mg		3.79332195		5.58140524		4.20998340		 0.00003892		 0.00001080		 0.00011512	
Ca		-0.35884269		2.78942282		1.47764398		 0.00006816		-0.00000574		 0.00056192	
Ca		-1.07652807		6.53199996		4.28603097		-0.00006816		 0.00000574		-0.00056192	
Ca		4.51100733		7.24812407		1.83434004		 0.00008202		 0.00002398		 0.00056904	
Ca		3.79332195		2.07329871		3.92933491		-0.00008202		-0.00002398		-0.00056904	
Si		2.45818828		0.92367906		1.22481403		-0.00011485		 0.00026475		-0.00013812	
Si		5.84614100		8.39774372		4.53886093		 0.00011485		-0.00026475		 0.00013812	
Si		6.56382638		0.94035733		1.43329036		 0.00023462		-0.00056314		-0.00003483	
Si		1.74050290		8.38106643		4.33038459		-0.00023462		 0.00056314		 0.00003483	
Si		7.32803928		5.38237934		1.58151009		 0.00013758		 0.00038080		-0.00003768	
Si		0.97629098		3.93904442		4.18216487		-0.00013758		-0.00038080		 0.00003768	
Si		1.69397636		5.39905760		1.78998642		-0.00012890		-0.00033589		-0.00018919	
Si		6.61035293		3.92236518		3.97368853		 0.00012890		 0.00033589		 0.00018919	
O		0.92170288		0.83223692		0.77842702		 0.00013480		-0.00036827		-0.00013244	
O		7.38262640		8.48918587		4.98524794		-0.00013480		 0.00036827		 0.00013244	
O		8.10031081		0.91961858		1.87070224		 0.00026208		 0.00013052		-0.00067151	
O		0.20401847		8.40180420		3.89297272		-0.00026208		-0.00013052		 0.00067151	
O		5.79155387		5.29093719		1.13512308		-0.00003317		-0.00039117		-0.00018044	
O		2.51277638		4.03048559		4.62855188		 0.00003317		 0.00039117		 0.00018044	
O		3.23046079		5.37831886		2.22739830		 0.00046269		 0.00010650		-0.00059746	
O		5.07386849		3.94310393		3.53627666		-0.00046269		-0.00010650		 0.00059746	
O		3.05934400		2.35942675		1.78326116		 0.00037468		 0.00008131		 0.00019582	
O		5.24498528		6.96199603		3.98041380		-0.00037468		-0.00008131		-0.00019582	
O		5.96267066		2.30467308		1.09884659		 0.00046555		-0.00015832		-0.00035663	
O		2.34165764		7.01674873		4.66482836		-0.00046555		 0.00015832		 0.00035663	
O		7.92919402		6.81812703		2.13995722		 0.00030150		-0.00002653		 0.00015966	
O		0.37513526		2.50329576		3.62371774		-0.00030150		 0.00002653		-0.00015966	
O		1.09282064		6.76337433		1.45554266		 0.00059396		-0.00037330		-0.00029012	
O		7.21150767		2.55804943		4.30813230		-0.00059396		 0.00037330		 0.00029012	
O		1.98719392		0.55769620		5.03964514		-0.00026882		-0.00059951		 0.00089594	
O		6.31713633		8.76372658		0.72402982		 0.00026882		 0.00059951		-0.00089594	
O		5.59944998		0.35937740		2.56066259		-0.00036931		-0.00059227		-0.00042384	
O		2.70487930		8.96204636		3.20301237		 0.00036931		 0.00059227		 0.00042384	
O		6.85704394		5.01639647		5.39634120		-0.00031405		-0.00060212		 0.00087884	
O		1.44728534		4.30502729		0.36733376		 0.00031405		 0.00060212		-0.00087884	
O		0.72959996		4.81807767		2.91735865		-0.00032223		-0.00059902		-0.00040741	
O		7.57472933		4.50334608		2.84631631		 0.00032223		 0.00059902		 0.00040741	
