# total energy = -22467.1319396 eV	

CRYSTAL	
PRIMVEC	
		9.73970004		0.00000000		0.00000000	
		0.00000000		8.91739665		-0.71339407	
		-1.43536881		-0.40402224		5.05028771	
PRIMCOORD
   40 1	
Mg		-0.35884269		7.99670670		0.61475428		 0.00003912		-0.00001096		 0.00011532	
Mg		-1.07652807		0.51667063		3.72213740		-0.00003912		 0.00001096		-0.00011532	
Mg		4.51100733		3.53800740		0.97145034		 0.00004122		 0.00000804		 0.00011201	
Mg		3.79332195		4.97537091		3.36544134		-0.00004122		-0.00000804		-0.00011201	
Ca		-0.35884269		2.58741170		1.04749695		-0.00008195		 0.00002397		-0.00056926	
Ca		-1.07652807		5.92596563		3.28939377		 0.00008195		-0.00002397		 0.00056926	
Ca		4.51100733		7.04611198		0.69080089		-0.00006813		-0.00000573		-0.00056217	
Ca		3.79332195		1.46726536		3.64608983		 0.00006813		 0.00000573		 0.00056217	
Si		2.45818828		0.73834621		1.09185154		 0.00012803		-0.00033686		 0.00018880	
Si		5.84614100		7.77503210		3.24503917		-0.00012803		 0.00033686		-0.00018880	
Si		6.56382638		0.72166794		1.30032787		-0.00013790		 0.00038120		 0.00003817	
Si		1.74050290		7.79171036		3.03656284		 0.00013790		-0.00038120		-0.00003817	
Si		7.32803928		5.19704648		0.73515646		-0.00023424		-0.00056315		 0.00003504	
Si		0.97629098		3.31633085		3.60173523		 0.00023424		 0.00056315		-0.00003504	
Si		1.69397636		5.18036822		0.94363181		 0.00011474		 0.00026519		 0.00013874	
Si		6.61035293		3.33301009		3.39325890		-0.00011474		-0.00026519		-0.00013874	
O		0.92170288		0.71760746		0.65443869		-0.00046216		 0.00010671		 0.00059814	
O		7.38262640		7.79576987		3.68245202		 0.00046216		-0.00010671		-0.00059814	
O		8.10031081		0.63022482		1.74671488		 0.00003297		-0.00039103		 0.00018085	
O		0.20401847		7.88315251		2.59017583		-0.00003297		 0.00039103		-0.00018085	
O		5.79155387		5.17630774		0.29774263		-0.00026220		 0.00013068		 0.00067183	
O		2.51277638		3.33706960		4.03914808		 0.00026220		-0.00013068		-0.00067183	
O		3.23046079		5.08892607		1.39001882		-0.00013509		-0.00036818		 0.00013276	
O		5.07386849		3.42445224		2.94687189		 0.00013509		 0.00036818		-0.00013276	
O		3.05934400		2.10266196		1.42629434		-0.00059366		-0.00037256		 0.00029055	
O		5.24498528		6.41071537		2.91059735		 0.00059366		 0.00037256		-0.00029055	
O		5.96267066		2.15741466		0.74187977		-0.00030136		-0.00002694		-0.00015952	
O		2.34165764		6.35596170		3.59501094		 0.00030136		 0.00002694		 0.00015952	
O		7.92919402		6.56136321		1.06959828		-0.00046572		-0.00015852		 0.00035676	
O		0.37513526		1.95201510		3.26729341		 0.00046572		 0.00015852		-0.00035676	
O		1.09282064		6.61611591		0.38518371		-0.00037447		 0.00008086		-0.00019566	
O		7.21150767		1.89726240		3.95170700		 0.00037447		-0.00008086		 0.00019566	
O		1.98719392		-0.24665693		5.01476215		 0.00032261		-0.00059892		 0.00040788	
O		6.31713633		8.76003426		-0.67787144		-0.00032261		 0.00059892		-0.00040788	
O		5.59944998		-0.04833813		2.53577961		 0.00031429		-0.00060210		-0.00087874	
O		2.70487930		8.56171644		1.80111111		-0.00031429		 0.00060210		 0.00087874	
O		6.85704394		4.21204432		4.65806609		 0.00036947		-0.00059207		 0.00042432	
O		1.44728534		4.30133399		-0.32117537		-0.00036947		 0.00059207		-0.00042432	
O		0.72959996		4.41036214		2.17908354		 0.00026908		-0.00059953		-0.00089590	
O		7.57472933		4.10301617		2.15780717		-0.00026908		 0.00059953		 0.00089590	
