# total energy = -22469.2788539 eV	

CRYSTAL	
PRIMVEC	
		9.73970004		0.00000000		0.00000000	
		0.00000000		8.91739665		0.35669703	
		-1.43536881		0.20201112		5.05028771	
PRIMCOORD
   40 1	
Mg		-0.35884269		8.14821650		1.58647929		 0.00036856		 0.00015613		-0.00003362	
Mg		-1.07652807		0.97119614		3.82049961		-0.00036856		-0.00015613		 0.00003362	
Mg		4.51100733		3.68951525		1.40813077		 0.00036991		 0.00012688		-0.00003919	
Mg		3.79332195		5.42989641		3.99884813		-0.00036991		-0.00012688		 0.00003919	
Ca		-0.35884269		2.73892053		1.37010698		-0.00003498		-0.00002059		 0.00018438	
Ca		-1.07652807		6.38049113		4.03687192		 0.00003498		 0.00002059		-0.00018438	
Ca		4.51100733		7.19762080		1.54845452		-0.00002232		 0.00002631		 0.00019237	
Ca		3.79332195		1.92179086		3.85852437		 0.00002232		-0.00002631		-0.00019237	
Si		2.45818828		0.87734634		1.19157341		-0.00027009		-0.00047897		 0.00003097	
Si		5.84614100		8.24206630		4.21540646		 0.00027009		 0.00047897		-0.00003097	
Si		6.56382638		0.88568547		1.40004877		 0.00057563		 0.00023982		 0.00014771	
Si		1.74050290		8.23372717		4.00693013		-0.00057563		-0.00023982		-0.00014771	
Si		7.32803928		5.33604563		1.36992095		 0.00020189		-0.00024118		 0.00021594	
Si		0.97629098		3.78336603		4.03705794		-0.00020189		 0.00024118		-0.00021594	
Si		1.69397636		5.34438477		1.57839728		-0.00002136		 0.00059757		-0.00010320	
Si		6.61035293		3.77502592		3.82858161		 0.00002136		-0.00059757		 0.00010320	
O		0.92170288		0.80357882		0.74743043		 0.00001728		 0.00032896		-0.00006751	
O		7.38262640		8.31583187		4.65954945		-0.00001728		-0.00032896		 0.00006751	
O		8.10031081		0.84727014		1.83970467		 0.00005229		-0.00029206		 0.00010328	
O		0.20401847		8.27214152		3.56727423		-0.00005229		 0.00029206		-0.00010328	
O		5.79155387		5.26228007		0.92577797		-0.00029341		 0.00028689		-0.00015901	
O		2.51277638		3.85713160		4.48120093		 0.00029341		-0.00028689		 0.00015901	
O		3.23046079		5.30597139		2.01805319		 0.00041286		-0.00033506		 0.00022527	
O		5.07386849		3.81344125		3.38892571		-0.00041286		 0.00033506		-0.00022527	
O		3.05934400		2.29523531		1.69402018		-0.00010878		 0.00016049		-0.00002785	
O		5.24498528		6.82417635		3.71295871		 0.00010878		-0.00016049		 0.00002785	
O		5.96267066		2.26785896		1.00960465		-0.00024972		 0.00064956		 0.00025227	
O		2.34165764		6.85155270		4.39737425		 0.00024972		-0.00064956		-0.00025227	
O		7.92919402		6.75393558		1.87236773		-0.00026301		-0.00008040		-0.00010180	
O		0.37513526		2.36547608		3.53461117		 0.00026301		 0.00008040		 0.00010180	
O		1.09282064		6.72655924		1.18795316		-0.00003896		 0.00030083		 0.00036291	
O		7.21150767		2.39285340		4.21902573		 0.00003896		-0.00030083		-0.00036291	
O		1.98719392		0.35660840		5.03342439		 0.00036394		 0.00019890		-0.00024210	
O		6.31713633		8.76280423		0.37355548		-0.00036394		-0.00019890		 0.00024210	
O		5.59944998		0.25744754		2.55444184		 0.00011427		-0.00034819		-0.00056551	
O		2.70487930		8.86196315		2.85253705		-0.00011427		 0.00034819		 0.00056551	
O		6.85704394		4.81530770		5.21177193		 0.00028593		 0.00019549		-0.00026632	
O		1.44728534		4.30410396		0.19520696		-0.00028593		-0.00019549		 0.00026632	
O		0.72959996		4.71614879		2.73279036		 0.00019114		-0.00036117		-0.00053409	
O		7.57472933		4.40326287		2.67418853		-0.00019114		 0.00036117		 0.00053409	
