# total energy = -4139.19799129 eV

CRYSTAL
PRIMVEC
		3.22509214		0.00000000		0.00000000
		-1.61254607		2.86462682		0.00000000
		0.00000000		0.00000000		4.98288346
PRIMECORD
   4 1
Mg		0.00000000		1.90975218		0.01076213		0.00000000		-0.00050927		 0.00061434
Mg		1.61254607		0.95487593		2.50220225		0.00000000		 0.00050927		 0.00061434
O		0.00000000		1.90975218		2.00531198		0.00000000		-0.00027350		-0.00061434
O		1.61254607		0.95487593		4.49675307		0.00000000		 0.00027350		-0.00061434
