# total energy = -49433.5941285 eV

CRYSTAL
PRIMVEC
		18.51103440		0.00000000		0.00111221
		0.00000000		8.99481266		0.00000000
		0.00030996		0.00000000		5.26202539
PRIMECORD
   80 1
Mg		6.95938271		5.85205437		4.60684079		-0.00029192		 0.00037608		 0.00020170
Mg		11.55197806		3.14275282		0.65628770		 0.00028817		-0.00033458		-0.00020496
Mg		2.29853578		3.14342379		1.97620005		 0.00024869		-0.00046948		 0.00018632
Mg		16.21282500		5.85138522		3.28692662		-0.00025089		 0.00050952		-0.00018291
Mg		11.55213669		1.35466080		3.28729675		 0.00028748		 0.00033510		-0.00020406
Mg		6.95922409		7.64017009		1.97582992		-0.00029107		-0.00037680		 0.00020059
Mg		16.21266637		7.64084471		0.65591392		-0.00025024		-0.00051004		-0.00018194
Mg		2.29869440		1.35398436		4.60721092		 0.00024786		 0.00047060		 0.00018528
Mg		6.93872108		4.42331836		1.95588302		-0.00010093		 0.00024023		 0.00014607
Mg		11.57264334		4.57148518		3.30724729		 0.00008664		-0.00018837		-0.00015699
Mg		2.31679977		4.57181520		4.58722026		-0.00001725		-0.00028557		 0.00015009
Mg		16.19456283		4.42298834		0.67590276		 0.00000661		 0.00033514		-0.00013993
Mg		11.57248654		8.92074110		0.67623642		 0.00008555		 0.00018859		-0.00015846
Mg		6.93887788		0.07409344		4.58689207		-0.00009962		-0.00024056		 0.00014773
Mg		16.19471963		0.07442893		3.30691363		 0.00000768		-0.00033543		-0.00014133
Mg		2.31664297		8.92040379		1.95620939		-0.00001863		 0.00028589		 0.00015184
Si		5.04463334		3.05793108		0.33192628		-0.00028634		-0.00004941		 0.00023900
Si		13.46656881		5.93677947		4.93119127		 0.00083487		 0.00042261		-0.00020723
Si		4.21222399		5.93709673		2.96281864		 0.00007187		-0.00001381		 0.00028686
Si		14.29897816		3.05761748		2.30031532		 0.00048102		 0.00037997		-0.00031884
Si		13.46640836		7.55545228		2.30017857		 0.00084509		-0.00044060		-0.00020439
Si		5.04479561		1.43947160		2.96293716		-0.00029676		 0.00007003		 0.00023590
Si		14.29913861		1.43979250		4.93132619		 0.00047117		-0.00036242		-0.00031594
Si		4.21206171		7.55513320		0.33180959		 0.00008566		-0.00000969		 0.00028318
Si		8.79338178		3.03462566		4.15939752		-0.00030578		 0.00005100		-0.00001174
Si		9.71812122		5.96010859		1.10376014		-0.00018357		 0.00024068		-0.00009424
Si		0.46140975		5.95972752		1.52653964		-0.00017398		 0.00023126		 0.00014780
Si		18.05007318		3.03501403		3.73655785		-0.00026159		 0.00002982		-0.00005332
Si		9.71827802		7.53211587		3.73476919		-0.00017755		-0.00023571		-0.00009114
Si		8.79322315		1.46278796		1.52838664		-0.00031088		-0.00005536		-0.00001474
Si		18.04991820		1.46240507		1.10554698		-0.00026835		-0.00003468		-0.00005012
Si		0.46156838		7.53249147		4.15755051		-0.00017060		-0.00022909		 0.00014536
O		3.41582116		3.05151854		0.24914482		-0.00023981		 0.00017063		 0.00025509
O		15.09562713		5.94330871		5.01398185		-0.00006601		-0.00019786		-0.00026238
O		5.84101611		5.94356762		2.87994419		 0.00024675		-0.00015546		 0.00026392
O		12.67043218		3.05125781		2.38317883		-0.00055699		 0.00012906		-0.00025622
O		15.09547033		7.54891940		2.38297280		-0.00007151		 0.00019931		-0.00026253
O		3.41597796		1.44589144		2.88015569		-0.00023434		-0.00017275		 0.00025508
O		12.67058899		1.44615582		5.01418970		-0.00055174		-0.00013054		-0.00025616
O		5.84086113		7.54865320		0.24893514		 0.00023944		 0.00015740		 0.00026404
O		5.77677579		4.48597242		0.28532821		-0.00014893		 0.00000168		-0.00013673
O		12.73464698		4.50894964		4.97779117		-0.00007460		-0.00036007		 0.00016167
O		3.47973694		4.50917026		2.91672927		 0.00016023		 0.00000506		-0.00012445
O		15.03168583		4.48574997		2.34640469		-0.00038263		-0.00035874		 0.00010006
O		12.73449018		-0.01153967		2.34678029		-0.00008089		 0.00037240		 0.00016218
O		5.77693259		9.00625387		2.91633908		-0.00014214		-0.00001517		-0.00013729
O		15.03184446		9.00648178		4.97741374		-0.00037652		 0.00034693		 0.00010063
O		3.47958013		-0.01176575		0.28571839		 0.00015197		 0.00001093		-0.00012526
O		5.61174161		1.98862948		4.44966322		-0.00033743		 0.00047408		-0.00017890
O		12.89963922		7.00619229		0.81347256		 0.00026630		-0.00048200		 0.00014756
O		3.64498261		7.00554867		1.81812541		 0.00032488		-0.00045066		-0.00013445
O		14.86639822		1.98927129		3.44499214		-0.00039830		 0.00044452		 0.00016451
O		12.89979602		6.48603399		3.44448343		 0.00026750		 0.00048716		 0.00014270
O		5.61158299		2.50878232		1.81865052		-0.00033872		-0.00048037		-0.00017283
O		14.86623959		2.50814598		0.81398309		-0.00039945		-0.00044963		 0.00015968
O		3.64514124		6.48667032		4.44913446		 0.00032646		 0.00045729		-0.00012815
O		10.43314287		3.07325957		4.16236038		 0.00031815		-0.00007915		-0.00008455
O		8.07813403		5.92156586		1.10076446		-0.00003670		 0.00006265		 0.00008805
O		17.33247156		5.92113738		1.53090097		 0.00006885		 0.00007126		-0.00001839
O		1.17881446		3.07368622		3.73222569		 0.00018283		-0.00008683		 0.00001515
O		8.07829448		7.57065860		3.73177534		-0.00004035		-0.00006221		 0.00008735
O		10.43298425		1.42415406		1.53134951		 0.00032115		 0.00007890		-0.00008389
O		1.17865401		1.42372011		1.10121482		 0.00018687		 0.00008614		 0.00001455
O		17.33263201		7.57109255		4.16191185		 0.00006667		-0.00007091		-0.00001785
O		8.00812478		4.34382613		3.65002768		 0.00024376		-0.00015251		-0.00012218
O		10.50317218		4.65107952		1.61306981		-0.00002901		-0.00014211		 0.00021715
O		1.24701135		4.65019522		1.01901134		-0.00004572		-0.00008158		-0.00019287
O		17.26429108		4.34470131		4.24413721		 0.00023780		-0.00018265		 0.00010869
O		10.50333263		8.84114676		4.24408251		-0.00003172		 0.00013739		 0.00021491
O		8.00796433		0.15358385		1.01901681		 0.00024609		 0.00015668		-0.00012013
O		17.26413063		0.15271413		1.61312816		 0.00024072		 0.00018724		 0.00010653
O		1.24717180		8.84202560		3.65002221		-0.00004690		 0.00007911		-0.00019144
O		8.32625051		1.80452724		3.10828516		-0.00005275		-0.00024309		 0.00004550
O		10.18509203		7.19028542		2.15483786		 0.00011660		 0.00026270		-0.00003637
O		0.92862854		7.18872832		0.47457215		 0.00013925		 0.00030336		 0.00012761
O		17.58271218		1.80608434		4.78855451		-0.00008226		-0.00028539		-0.00013596
O		10.18524884		6.30193904		4.78584873		 0.00011634		-0.00026309		-0.00003572
O		8.32609188		2.69288456		0.47727429		-0.00005235		 0.00024341		 0.00004478
O		17.58255538		2.69133293		2.15754364		-0.00008212		 0.00028570		-0.00013533
O		0.92878717		6.30349250		3.10558303		 0.00013889		-0.00030313		 0.00012721
