# total energy = -49427.3764428 eV

CRYSTAL
PRIMVEC
		19.79770071		0.00000000		-0.00129454
		0.00000000		10.86214529		0.00000000
		-0.00030996		0.00000000		5.59149569
PRIMECORD
   80 1
Mg		7.42101491		5.43324967		5.59249486		 0.00063990		-0.00033454		-0.00006896
Mg		12.37638860		5.42889563		-0.00228277		-0.00065637		 0.00032592		 0.00005941
Mg		2.47287242		5.42932410		2.79654280		 0.00020727		 0.00033161		-0.00004294
Mg		17.32453291		5.43282301		2.79364740		-0.00019045		-0.00034073		 0.00005361
Mg		12.37623362		0.00217702		2.79346325		-0.00068547		-0.00041961		 0.00007514
Mg		7.42115713		10.85996098		2.79674884		 0.00071345		 0.00042778		-0.00008454
Mg		17.32469883		10.86038763		-0.00209862		-0.00025281		 0.00041643		 0.00006380
Mg		2.47271927		0.00174854		5.59228883		 0.00022498		-0.00040731		-0.00005274
Mg		7.42477455		5.43414855		2.79700045		-0.00012307		 0.00016138		-0.00025755
Mg		12.37263260		5.42801133		2.79320799		 0.00010158		-0.00016577		 0.00023741
Mg		2.47322432		5.43009536		5.59280482		 0.00048171		-0.00019354		-0.00019120
Mg		17.32418830		5.43207729		-0.00261279		-0.00047100		 0.00018739		 0.00021377
Mg		12.37278576		10.86520297		-0.00253986		 0.00011356		 0.00003382		 0.00025635
Mg		7.42460863		-0.00307955		5.59274830		-0.00009060		-0.00002911		-0.00027667
Mg		17.32404973		-0.00100828		2.79313323		-0.00052776		-0.00014334		 0.00023065
Mg		2.47337930		10.86311711		2.79705880		 0.00049352		 0.00015046		-0.00020799
Si		4.95096860		3.62431368		1.40196450		-0.00011512		 0.00004385		-0.00019575
Si		14.84634374		7.23782432		4.18825853		 0.00030360		 0.00000661		 0.00019846
Si		4.94519968		7.23829290		4.19643421		 0.00023617		-0.00036607		-0.00017805
Si		14.85211631		3.62408759		1.39375235		-0.00005104		-0.00016281		 0.00017368
Si		14.84653337		9.05530793		1.39251069		 0.00018277		 0.00019062		 0.00019897
Si		4.95077898		1.80664045		4.19771052		 0.00000114		 0.00024846		-0.00019510
Si		14.85199780		1.80706345		4.18949838		-0.00016432		-0.00003244		 0.00017402
Si		4.94531637		9.05503626		1.40068819		 0.00035174		 0.00007453		-0.00017804
Si		9.89709998		3.62344944		4.19340753		-0.00002932		 0.00048508		 0.00023404
Si		9.90044392		7.23862839		1.39678997		-0.00031235		-0.00033670		-0.00024356
Si		0.00023521		7.23909516		1.39720933		-0.00018375		-0.00037084		 0.00025607
Si		19.79725035		3.62298632		4.19300094		 0.00007960		 0.00051500		-0.00024725
Si		9.90025065		9.05451662		4.19253599		-0.00018533		 0.00050199		-0.00024361
Si		9.89721121		1.80768702		1.39765969		 0.00010530		-0.00064683		 0.00023380
Si		19.79744180		1.80797693		1.39725491		-0.00004450		-0.00024508		-0.00024728
Si		0.00012581		9.05422489		4.19295718		-0.00032052		 0.00010073		 0.00025588
O		3.58220275		4.53974882		1.39984765		-0.00027634		-0.00049350		-0.00001175
O		16.21521352		6.32238371		4.19033345		 0.00015924		 0.00054959		 0.00002557
O		6.31442318		6.32328624		4.19471301		-0.00004656		 0.00061630		-0.00003053
O		13.48302591		4.53878795		1.39551184		-0.00019054		-0.00043486		 0.00001627
O		16.21535209		9.97082694		1.39458742		 0.00020133		-0.00053324		 0.00002547
O		3.58208788		0.89136029		4.19559549		-0.00039592		 0.00038893		-0.00001181
O		13.48284358		0.89225188		4.19125786		-0.00009681		 0.00050236		 0.00001656
O		6.31458181		9.96992076		1.39896517		-0.00006323		-0.00059535		-0.00003065
O		6.32232536		4.53544037		1.40095986		-0.00026605		-0.00014831		-0.00022293
O		13.47501798		6.32673045		4.18919935		 0.00025464		 0.00015656		 0.00024891
O		3.57389397		6.32723368		4.19508679		 0.00028795		 0.00020487		-0.00014524
O		16.22341108		4.53488791		1.39515812		-0.00017696		-0.00007040		 0.00011842
O		13.47513832		-0.89562681		1.39345151		 0.00035406		-0.00022501		 0.00024890
O		6.32217950		11.75777757		4.19670588		-0.00028361		 0.00012585		-0.00022298
O		16.22324698		11.75832821		4.19090596		-0.00013807		 0.00005217		 0.00011869
O		3.57408359		-0.89620297		1.39934077		 0.00017017		-0.00009769		-0.00014535
O		4.94891739		2.71410047		5.59644413		 0.00000664		-0.00012092		-0.00014239
O		14.84859552		8.14811410		-0.00614817		-0.00006247		-0.00007085		-0.00008196
O		4.94664920		8.14895465		2.80010006		 0.00005635		 0.00004734		-0.00012477
O		14.85086370		2.71312866		2.79013755		-0.00011120		 0.00009348		-0.00005173
O		14.84844236		8.14515489		2.78954680		-0.00006247		-0.00007800		 0.00008461
O		4.94906872		2.71704693		2.80062517		 0.00000684		-0.00006298		 0.00009314
O		14.85101686		2.71788565		-0.00565952		-0.00011112		 0.00005464		 0.00011344
O		4.94649605		8.14417942		5.59577498		 0.00005634		 0.00013572		 0.00010924
O		11.27054989		4.53160050		4.19297359		 0.00012855		 0.00024265		-0.00020021
O		8.52683538		6.33058491		1.39717104		-0.00004515		-0.00023092		 0.00022178
O		18.42624549		6.32907886		1.39569234		-0.00005820		-0.00026895		-0.00018886
O		1.37119631		4.53314119		4.19457080		 0.00000214		 0.00019332		 0.00016592
O		8.52669681		9.96262027		4.19291889		-0.00009583		 0.00025977		 0.00022202
O		11.27073587		0.89943933		1.39722756		 0.00002665		-0.00017693		-0.00020042
O		1.37131300		0.89796975		1.39882477		 0.00012195		-0.00030026		 0.00016564
O		18.42608139		9.96413178		4.19144019		-0.00002458		 0.00028070		-0.00018864
O		8.52895588		4.53993115		4.19310669		 0.00016729		-0.00022511		 0.00045190
O		11.26838199		6.32223967		1.39706164		 0.00005629		 0.00008851		-0.00044066
O		1.36908128		6.32453520		1.39654018		-0.00004389		 0.00007337		 0.00049116
O		18.42831311		4.53760098		4.19369744		 0.00012646		-0.00011891		-0.00050288
O		11.26825983		9.97100380		4.19280767		-0.00004263		-0.00015718		-0.00044049
O		8.52912727		0.89114696		1.39736066		 0.00011233		 0.00019768		 0.00045132
O		18.42845897		0.89347167		1.39795141		 0.00015312		 0.00010530		-0.00050295
O		1.36888801		9.96863716		4.19228803		 0.00008169		 0.00003522		 0.00049091
O		9.89522199		2.71367200		2.79679260		-0.00016321		 0.00026725		 0.00008079
O		9.90209765		8.14847147		2.79339944		 0.00021962		-0.00027582		-0.00008453
O		0.00000000		8.14937036		0.00138024		 0.00037746		-0.00015710		-0.00011593
O		19.79732146		2.71277311		5.58883367		-0.00031925		 0.00014755		 0.00012021
O		9.90194449		8.14478658		5.58910170		 0.00021968		 0.00014918		 0.00005536
O		9.89537514		2.71735324		0.00108851		-0.00016334		-0.00014229		-0.00005636
O		19.79747644		2.71837064		2.79315329		-0.00031936		-0.00031709		-0.00009740
O		-0.00013857		8.14376736		2.79706245		 0.00037750		 0.00032642		 0.00010134
