# total energy = -49433.6809967 eV

CRYSTAL
PRIMVEC
		18.27581048		0.00000000		0.00021880
		0.00000000		8.80535356		0.00000000
		0.00005470		0.00000000		5.16446061
PRIMECORD
   80 1
Mg		6.87246236		5.76539839		4.44909982		 0.00048782		-0.00008172		-0.00029163
Mg		11.40340282		3.03995882		0.71558141		-0.00048731		 0.00007668		 0.00029207
Mg		2.26658974		3.03974002		1.86686222		-0.00051861		 0.00007657		-0.00030567
Mg		16.00927362		5.76561719		3.29781719		 0.00051897		-0.00008182		 0.00030527
Mg		11.40343382		1.36271979		3.29781536		-0.00048733		-0.00007664		 0.00029208
Mg		6.87243136		7.44263378		1.86686405		 0.00048786		 0.00008173		-0.00029159
Mg		16.00924444		7.44241498		0.71558141		 0.00051898		 0.00008174		 0.00030528
Mg		2.26662073		1.36293676		4.44909617		-0.00051859		-0.00007654		-0.00030577
Mg		6.88626109		4.27574411		1.83254225		 0.00029666		-0.00001907		-0.00012226
Mg		11.38960409		4.52961310		3.33213716		-0.00029454		 0.00001277		 0.00012368
Mg		2.25309367		4.52979543		4.41490748		-0.00030947		 0.00000323		-0.00012492
Mg		16.02276968		4.27556360		0.74977193		 0.00031120		-0.00000951		 0.00012335
Mg		11.38957309		8.67841907		0.74990321		-0.00029452		-0.00001280		 0.00012361
Mg		6.88629026		0.12693267		4.41477620		 0.00029660		 0.00001908		-0.00012221
Mg		16.02280068		0.12711318		3.33200588		 0.00031117		 0.00000953		 0.00012330
Mg		2.25306450		8.67823856		1.83267352		-0.00030942		-0.00000318		-0.00012484
Si		4.96377911		3.01304873		0.25063810		-0.00042380		 0.00016012		-0.00031668
Si		13.31210431		5.79231942		4.91404131		 0.00035551		-0.00020638		 0.00031220
Si		4.17528940		5.79237229		2.83259674		 0.00007604		-0.00037357		-0.00029334
Si		14.10059401		3.01299586		2.33208085		-0.00014476		 0.00032808		 0.00029776
Si		13.31207513		7.41571275		2.33180735		 0.00035602		 0.00020568		 0.00031227
Si		4.96380828		1.38962987		2.83287388		-0.00042404		-0.00015976		-0.00031671
Si		14.10062501		1.38968275		4.91431662		-0.00014452		-0.00032819		 0.00029775
Si		4.17526023		7.41566170		0.25036096		 0.00007605		 0.00037357		-0.00029331
Si		8.65156733		2.97103808		4.14124110		 0.00026956		-0.00014531		-0.00002714
Si		9.62428144		5.83432642		1.02343467		-0.00021567		 0.00011540		 0.00003991
Si		0.48601154		5.83409304		1.55852944		-0.00024033		 0.00011887		-0.00003838
Si		17.78983905		2.97126964		3.60615179		 0.00029104		-0.00014686		 0.00002632
Si		9.62431243		7.37370757		3.60566862		-0.00021562		-0.00011558		 0.00004003
Si		8.65153816		1.43164053		1.55900714		 0.00026957		 0.00014560		-0.00002709
Si		17.78980988		1.43140897		1.02391784		 0.00029056		 0.00014647		 0.00002663
Si		0.48604071		7.37393913		4.14076339		-0.00024001		-0.00011869		-0.00003858
O		3.34775737		2.99656063		0.15324654		-0.00039790		 0.00017068		-0.00016241
O		14.92809687		5.80879476		5.01143105		 0.00043570		-0.00016688		 0.00016366
O		5.79119079		5.80878746		2.73542214		 0.00055913		-0.00013855		-0.00017317
O		12.48466527		2.99656792		2.42925909		-0.00052132		 0.00014220		 0.00017217
O		14.92806769		7.39923741		2.42919710		 0.00043537		 0.00016701		 0.00016351
O		3.34778837		1.40611797		2.73548231		-0.00039784		-0.00017080		-0.00016242
O		12.48469444		1.40611068		5.01149304		-0.00052147		-0.00014226		 0.00017217
O		5.79115980		7.39924653		0.15318637		 0.00055918		 0.00013857		-0.00017312
O		5.68204624		4.43687095		0.19698386		-0.00005774		 0.00032022		-0.00014951
O		12.59381165		4.36847350		4.96769555		 0.00008497		-0.00027633		 0.00014621
O		3.45696575		4.36841333		2.77906283		 0.00016252		-0.00014985		-0.00012495
O		14.81889214		4.43693112		2.38561476		-0.00013510		 0.00019353		 0.00012814
O		12.59378248		0.03420511		2.38546160		 0.00008474		 0.00027680		 0.00014614
O		5.68207541		8.77116122		2.77921963		-0.00005755		-0.00032039		-0.00014949
O		14.81892131		8.77110105		4.96784871		-0.00013522		-0.00019309		 0.00012812
O		3.45693657		0.03426528		0.19682888		 0.00016242		 0.00014974		-0.00012477
O		5.55153078		1.93146903		4.30693895		 0.00013538		 0.00009765		-0.00034093
O		12.72433257		6.87388636		0.85774046		-0.00012674		-0.00009653		 0.00034494
O		3.58739004		6.87381707		1.72440780		-0.00009142		-0.00009255		-0.00035121
O		14.68847332		1.93153832		3.44027161		 0.00010035		 0.00009351		 0.00034721
O		12.72436357		6.33414764		3.43997441		-0.00012670		 0.00009671		 0.00034493
O		5.55149978		2.47120775		1.72470317		 0.00013533		-0.00009769		-0.00034095
O		14.68844415		2.47114029		0.85803766		 0.00010034		-0.00009351		 0.00034715
O		3.58741921		6.33421510		4.30664357		-0.00009134		 0.00009252		-0.00035121
O		10.27835383		2.99223212		4.14918886		-0.00000576		 0.00005165		-0.00026260
O		7.99751865		5.81312145		1.01549055		-0.00002630		-0.00004949		 0.00026210
O		17.13487507		5.81273855		1.56679263		 0.00000314		-0.00005238		-0.00026578
O		1.14099740		2.99261683		3.59788495		-0.00003341		 0.00005461		 0.00026646
O		7.99754782		7.39491072		3.59772450		-0.00002631		 0.00004948		 0.00026216
O		10.27832465		1.41044466		1.56695491		-0.00000574		-0.00005165		-0.00026274
O		1.14096640		1.41005995		1.01565100		-0.00003312		-0.00005467		 0.00026644
O		17.13490607		7.39529544		4.14902659		 0.00000300		 0.00005244		-0.00026568
O		7.90722336		4.25075031		3.54471570		-0.00007011		 0.00021671		 0.00000093
O		10.36864729		4.55459778		1.61996735		 0.00004762		-0.00018632		-0.00001252
O		1.23127445		4.55455037		0.96241429		 0.00003354		-0.00018493		 0.00001864
O		17.04459620		4.25079772		4.20226148		-0.00005467		 0.00021347		-0.00000790
O		10.36867646		8.65343439		4.20220313		 0.00004765		 0.00018622		-0.00001257
O		7.90719419		0.15192829		0.96247993		-0.00007023		-0.00021692		 0.00000093
O		17.04456703		0.15187906		1.62002752		-0.00005437		-0.00021292		-0.00000813
O		1.23130362		8.65348180		3.54464824		 0.00003331		 0.00018450		 0.00001879
O		8.17040030		1.68436266		3.15725899		-0.00010554		 0.00002145		-0.00019128
O		10.10546670		7.12099273		2.00742041		 0.00009812		-0.00002410		 0.00019028
O		0.96724785		7.12068276		0.57443065		 0.00011076		-0.00001819		-0.00018485
O		17.30861915		1.68467262		4.59024694		-0.00011783		 0.00001568		 0.00018581
O		10.10549587		6.08703944		4.58965437		 0.00009848		 0.00002420		 0.00019011
O		8.17036930		2.71831594		0.57502504		-0.00010557		-0.00002152		-0.00019117
O		17.30858997		2.71800598		2.00801299		-0.00011805		-0.00001563		 0.00018576
O		0.96727703		6.08734940		3.15666642		 0.00011120		 0.00001805		-0.00018479
