# total energy = -49425.9451266 eV

CRYSTAL
PRIMVEC
		19.99775318		0.00001823		0.00144041
		0.00000000		10.96018413		0.00000000
		0.00025526		0.00000000		5.62101492
PRIMECORD
   80 1
Mg		7.49682954		5.47831252		5.61929008		 0.00036047		-0.00036818		-0.00023201
Mg		12.50118436		5.48187890		0.00315249		-0.00035882		 0.00037204		 0.00023317
Mg		2.49896202		5.48167104		2.80924027		 0.00048440		 0.00034886		-0.00029977
Mg		17.49905371		5.47852038		2.81320230		-0.00048624		-0.00034590		 0.00029908
Mg		12.50130470		-0.00177225		2.81365447		-0.00027192		-0.00029639		 0.00021135
Mg		7.49670920		10.96197279		2.80878809		 0.00027403		 0.00029300		-0.00021115
Mg		17.49893155		10.96177587		0.00270031		-0.00038593		 0.00030677		 0.00029231
Mg		2.49908601		-0.00157715		5.61974225		 0.00038371		-0.00030945		-0.00029261
Mg		7.50018624		5.47300308		2.80915822		 0.00000815		-0.00017548		-0.00029361
Mg		12.49782585		5.48719017		2.81328617		-0.00000607		 0.00017940		 0.00029171
Mg		2.49778782		5.48496210		5.61983524		 0.00038813		 0.00024746		-0.00036167
Mg		17.50022791		5.47523115		0.00260550		-0.00038948		-0.00024443		 0.00036300
Mg		12.49770186		10.95309514		0.00278600		 0.00009413		 0.00009148		 0.00027267
Mg		7.50031205		0.00710358		5.61965838		-0.00009153		-0.00009482		-0.00027355
Mg		17.50035190		0.00488644		2.81311113		-0.00028747		 0.00012175		 0.00035353
Mg		2.49766383		10.95531227		2.80933143		 0.00028569		-0.00012444		-0.00035264
Si		4.99518362		3.65546659		1.39769068		-0.00007260		 0.00036950		 0.00023989
Si		15.00285034		7.30472666		4.22475188		 0.00002507		-0.00036409		-0.00023963
Si		5.00304205		7.30431095		4.20796840		-0.00012579		-0.00025480		 0.00019854
Si		14.99499009		3.65589871		1.41447416		 0.00007963		 0.00022742		-0.00019870
Si		15.00273365		9.13561700		1.41424989		 0.00000454		 0.00023637		-0.00023983
Si		4.99530031		1.82457990		4.20819449		-0.00005321		-0.00023698		 0.00024008
Si		14.99513413		1.82416783		4.22497615		 0.00002449		-0.00011335		-0.00019683
Si		5.00289801		9.13601630		1.39746642		-0.00007114		 0.00013780		 0.00019669
Si		10.00443948		3.65587865		4.22290305		-0.00005924		 0.00036025		-0.00015964
Si		9.99355802		7.30429636		1.39953951		 0.00010932		-0.00031842		 0.00016039
Si		-0.00365936		7.30471025		1.41158605		 0.00004491		-0.00036974		-0.00021970
Si		20.00166415		3.65546841		4.21085833		-0.00001431		 0.00040526		 0.00021896
Si		9.99367471		9.13603818		4.21004332		 0.00013186		 0.00019575		 0.00016009
Si		10.00432096		1.82418059		1.41239924		-0.00007973		-0.00024542		-0.00015933
Si		20.00154746		1.82458172		1.40035452		-0.00003450		-0.00024428		 0.00022062
Si		-0.00354267		9.13563341		4.22208986		 0.00006493		 0.00020576		-0.00022134
O		3.62209837		4.57932173		1.40149226		-0.00035635		 0.00009461		 0.00018149
O		16.37591006		6.38088064		4.22095030		 0.00038124		-0.00011044		-0.00018159
O		6.37637891		6.38099551		4.21106984		 0.00013799		-0.00019222		 0.00022776
O		13.62163500		4.57920321		1.41137272		-0.00012747		 0.00018851		-0.00022766
O		16.37577331		10.05939921		1.41044831		 0.00042075		 0.00015844		-0.00018150
O		3.62223512		0.90079040		4.21199607		-0.00039553		-0.00014277		 0.00018137
O		13.62175533		0.90090709		4.22187471		-0.00012589		-0.00021052		-0.00022749
O		6.37625857		10.05928616		1.40056785		 0.00013716		 0.00021505		 0.00022756
O		6.37522658		4.56875023		1.40297096		 0.00008427		 0.00028929		-0.00025576
O		13.62278185		6.39143937		4.21947343		-0.00006110		-0.00027696		 0.00025578
O		3.62365547		6.38953402		4.21362428		-0.00038265		-0.00015774		-0.00030436
O		16.37434749		4.57065011		1.40881828		 0.00041897		 0.00018171		 0.00030426
O		13.62265787		-0.91134001		1.40896961		-0.00007910		 0.00031728		 0.00025519
O		6.37534875		11.87154237		4.21347295		 0.00010334		-0.00033086		-0.00025508
O		16.37445872		11.86966802		4.21932392		 0.00047477		-0.00024619		 0.00030334
O		3.62354425		-0.90946019		1.40311865		-0.00043867		 0.00022230		-0.00030352
O		4.99017867		2.74669743		5.60913794		 0.00031745		-0.00012216		 0.00021099
O		15.00783524		8.21350129		0.01330462		-0.00031191		 0.00011986		-0.00021358
O		5.00766593		8.21385683		2.79866148		-0.00035733		 0.00012555		 0.00020728
O		14.99034797		2.74634006		2.82378108		 0.00036270		-0.00012505		-0.00020782
O		15.00795923		8.22676032		2.82383578		-0.00031167		-0.00005661		-0.00030447
O		4.99005468		2.73343657		2.79860678		 0.00031730		 0.00005525		 0.00030614
O		14.99022399		2.73379576		0.01329915		 0.00036217		 0.00007305		-0.00028301
O		5.00778992		8.22639931		5.60914341		-0.00035681		-0.00007154		 0.00028459
O		11.37806077		4.57916675		4.21904677		-0.00006751		-0.00008408		-0.00014700
O		8.61996954		6.38104473		1.40339579		 0.00002236		 0.00005070		 0.00014803
O		18.62054545		6.38201473		1.40844268		-0.00014496		 0.00006427		-0.00012394
O		1.37747940		4.57819128		4.21400170		 0.00011330		-0.00008904		 0.00012305
O		8.62010811		10.05922599		4.21389778		-0.00001123		-0.00000724		 0.00014822
O		11.37792220		0.90095449		1.40854296		-0.00003590		 0.00004163		-0.00014724
O		1.37733901		0.90191902		1.40349789		 0.00015877		 0.00003209		 0.00012325
O		18.62068766		10.05826694		4.21894649		-0.00019044		-0.00000728		-0.00012408
O		8.62509484		4.57072487		4.21552051		-0.00042662		 0.00017419		 0.00045403
O		11.37292089		6.38947385		1.40692205		 0.00042037		-0.00017856		-0.00045383
O		1.37419564		6.38855855		1.40457364		 0.00045037		-0.00018550		 0.00038565
O		18.62381827		4.57164016		4.21787075		-0.00045047		 0.00017987		-0.00038588
O		11.37304488		10.05080964		4.21742586		 0.00043050		 0.00021193		-0.00045401
O		8.62497085		0.90938361		1.40501670		-0.00043722		-0.00020812		 0.00045423
O		18.62369793		0.90848837		1.40736693		-0.00047606		-0.00022899		-0.00038564
O		1.37431598		10.05170488		4.21507745		 0.00047652		 0.00023463		 0.00038547
O		10.00872788		2.73078732		2.82373732		-0.00027527		 0.00025188		-0.00031330
O		9.98928968		8.22940958		2.79870159		 0.00026863		-0.00025018		 0.00031632
O		-0.00686290		8.22960467		0.01257348		 0.00016040		-0.00020284		-0.00034745
O		20.00487863		2.73059222		5.60987273		-0.00016424		 0.00020275		 0.00034702
O		9.98941731		8.21084109		5.60923640		 0.00026818		 0.00031747		 0.00022109
O		10.00859842		2.74935033		0.01320798		-0.00027479		-0.00031264		-0.00022707
O		20.00475282		2.74956184		2.79940356		-0.00016395		-0.00028784		 0.00023514
O		-0.00673709		8.21063141		2.82304082		 0.00016017		 0.00029035		-0.00023203
