# total energy = -49432.2961934 eV

CRYSTAL
PRIMVEC
		18.77437361		0.00000000		0.00381070
		0.00000000		9.16718744		0.00000000
		0.00109398		0.00000000		5.40119788
PRIMECORD
   80 1
Mg		7.05705689		5.89349068		4.90620294		 0.00010477		-0.00027654		-0.00022177
Mg		11.71841253		3.27370769		0.49881293		-0.00010503		 0.00026197		 0.00022192
Mg		2.33283934		3.27536325		2.20610359		-0.00014508		 0.00023075		-0.00031317
Mg		16.44263008		5.89183877		3.19891228		 0.00014410		-0.00024507		 0.00031317
Mg		11.71895769		1.30988967		3.19941004		-0.00010514		-0.00026186		 0.00022214
Mg		7.05650990		7.85730141		2.20560582		 0.00010490		 0.00027629		-0.00022201
Mg		16.44208491		7.85895514		0.49831517		 0.00014426		 0.00024494		 0.00031333
Mg		2.33338451		1.30823594		4.90670070		-0.00014524		-0.00023064		-0.00031332
Mg		6.99109355		4.60414413		2.20960250		 0.00039124		-0.00024921		 0.00006317
Mg		11.78437587		4.56305789		3.19541519		-0.00039113		 0.00023246		-0.00006324
Mg		2.40248028		4.56318917		4.91117873		-0.00052763		 0.00022836		 0.00000149
Mg		16.37299096		4.60401285		0.49383714		 0.00052729		-0.00024497		-0.00000162
Mg		11.78383071		9.18773420		0.49481808		-0.00039134		-0.00023233		-0.00006355
Mg		6.99163871		-0.02054494		4.91019961		 0.00039142		 0.00024910		 0.00006346
Mg		16.37353430		-0.02041367		3.19443426		 0.00052751		 0.00024486		-0.00000197
Mg		2.40193512		9.18760293		2.21057979		-0.00052782		-0.00022830		 0.00000180
Si		5.12763542		3.09050069		0.54154561		-0.00014729		 0.00040952		 0.00037630
Si		13.64788687		6.07672504		4.86347391		-0.00003235		-0.00051545		-0.00038469
Si		4.26324721		6.07688731		3.24094482		 0.00007563		-0.00048739		 0.00042789
Si		14.51227508		3.09034206		2.16406923		-0.00026003		 0.00037307		-0.00041850
Si		13.64733988		7.67406706		2.16287497		-0.00003072		 0.00051225		-0.00038411
Si		5.12818241		1.49309667		3.24214272		-0.00014952		-0.00040561		 0.00037564
Si		14.51282207		1.49325348		4.86466634		-0.00026247		-0.00036911		-0.00041780
Si		4.26270205		7.67390661		0.54034588		 0.00007737		 0.00048388		 0.00042729
Si		8.97206699		3.10179603		4.13685059		 0.00023685		 0.00004019		-0.00022914
Si		9.80334773		6.06543152		1.26816345		-0.00006536		-0.00014500		 0.00024911
Si		0.41467675		6.06461103		1.43084557		-0.00010253		-0.00016625		-0.00021435
Si		18.36073979		3.10261834		3.97417212		 0.00027143		 0.00006250		 0.00019502
Si		9.80389289		7.68536058		3.96876057		-0.00006417		 0.00014569		 0.00024961
Si		8.97152183		1.48180133		1.43625348		 0.00023602		-0.00004051		-0.00022960
Si		18.36019462		1.48098085		1.27357501		 0.00027050		-0.00006317		 0.00019543
Si		0.41522192		7.68618106		4.13144268		-0.00010165		 0.00016683		-0.00021466
O		3.48853983		3.11366207		0.48089718		 0.00014663		 0.00030579		-0.00021383
O		15.28689677		6.05353448		4.92412051		-0.00004154		-0.00030104		 0.00021481
O		5.90235557		6.05377334		3.17999372		-0.00011773		-0.00028808		-0.00013410
O		12.87307921		3.11341957		2.22502032		 0.00022491		 0.00029360		 0.00013316
O		15.28635160		7.69725761		2.22352339		-0.00004238		 0.00030128		 0.00021457
O		3.48908500		1.46993712		3.18149430		 0.00014767		-0.00030607		-0.00021361
O		12.87362437		1.47017779		4.92561744		 0.00022613		-0.00029381		 0.00013328
O		5.90181040		7.69701694		0.47939661		-0.00011864		 0.00028840		-0.00013411
O		5.89287076		4.51245585		0.50572141		 0.00024569		 0.00050739		-0.00037537
O		12.88257678		4.65470971		4.89929446		-0.00017449		-0.00040244		 0.00037058
O		3.49760892		4.65528223		3.20510421		-0.00018658		-0.00052391		-0.00028723
O		15.27783497		4.51187969		2.19991166		 0.00026177		 0.00063518		 0.00029258
O		12.88203161		-0.07111234		2.19869552		-0.00017552		 0.00040447		 0.00037071
O		5.89341593		9.23833807		3.20631853		 0.00024707		-0.00050992		-0.00037547
O		15.27837831		9.23891241		4.90051060		 0.00026329		-0.00063798		 0.00029260
O		3.49706376		-0.07168486		0.50450527		-0.00018786		 0.00052619		-0.00028724
O		5.65148591		2.06279950		4.73656676		 0.00042195		 0.00053448		 0.00007669
O		13.12397439		7.10439158		0.66844911		-0.00039772		-0.00053304		-0.00006869
O		3.74018440		7.10541445		2.03565968		-0.00035218		-0.00059614		 0.00009377
O		15.03527773		2.06177846		3.36935801		 0.00037597		 0.00059871		-0.00010312
O		13.12451956		6.64639869		3.36904805		-0.00039770		 0.00053417		-0.00006996
O		5.65094074		2.52079968		2.03596782		 0.00042179		-0.00053564		 0.00007805
O		15.03473074		2.52182073		0.66875907		 0.00037560		-0.00059976		-0.00010437
O		3.74072956		6.64537764		4.73625680		-0.00035176		 0.00059726		 0.00009501
O		10.62012958		3.16159480		4.14375543		-0.00001790		-0.00008245		-0.00016543
O		8.15536901		6.00559628		1.26125679		-0.00007797		 0.00008783		 0.00016626
O		17.54094220		6.00334633		1.44245634		-0.00014610		 0.00014778		-0.00008954
O		1.23455457		3.16384475		3.96256317		 0.00005202		-0.00014266		 0.00008884
O		8.15591418		7.74519764		3.96185391		-0.00007867		-0.00008773		 0.00016622
O		10.61958259		1.42200256		1.44315649		-0.00001741		 0.00008240		-0.00016537
O		1.23400940		1.41975261		1.26196606		 0.00005252		 0.00014249		 0.00008872
O		17.54148919		7.74744759		4.14305346		-0.00014663		-0.00014759		-0.00008937
O		8.14565630		4.46814237		3.84765516		-0.00018511		-0.00030378		 0.00009410
O		10.62983500		4.69901954		1.55736070		 0.00011050		 0.00040760		-0.00010881
O		1.24400473		4.69880257		1.14601877		 0.00006364		 0.00035821		 0.00014389
O		17.53148474		4.46835934		4.25899892		-0.00013724		-0.00025596		-0.00013018
O		10.63038017		9.05177255		4.25795964		 0.00011003		-0.00040845		-0.00010892
O		8.14510931		0.11545682		1.14705623		-0.00018481		 0.00030428		 0.00009417
O		17.53093958		0.11523985		1.55839998		-0.00013677		 0.00025634		-0.00013028
O		1.24455172		9.05198952		3.84661588		 0.00006318		-0.00035876		 0.00014402
O		8.50759592		2.06190244		2.92194937		 0.00015226		 0.00017300		-0.00022915
O		10.26787897		7.10529958		2.48306832		-0.00017406		-0.00017954		 0.00022463
O		0.87851879		7.10121174		0.21346284		-0.00015689		-0.00021838		-0.00019893
O		17.89695610		2.06598845		5.19155120		 0.00013541		 0.00021206		 0.00020327
O		10.26842413		6.64549433		5.18366543		-0.00017406		 0.00017954		 0.00022469
O		8.50705075		2.52169675		0.22135226		 0.00015227		-0.00017307		-0.00022910
O		17.89640911		2.51761073		2.49095409		 0.00013567		-0.00021180		 0.00020358
O		0.87906395		6.64957853		2.91405996		-0.00015706		 0.00021829		-0.00019926
