# total energy = -9074.81272932 eV	

CRYSTAL	
PRIMVEC	
		5.11310008		0.00000000		0.00000000	
		0.00000000		5.18980170		0.00000000	
		-0.00383994		0.00000000		6.78052804	
PRIMCOORD
   28 1	
Mg		3.87988016		2.66755698		1.70191224		 0.00000693		-0.00020735		-0.00009431	
Mg		1.22938202		0.07265715		5.07861427		-0.00000693		-0.00020735		 0.00009431	
Si		1.27731580		0.06746684		1.69513226		 0.00031435		 0.00031680		 0.00004208	
Si		3.83194690		2.66236718		5.08539526		-0.00031435		 0.00031680		-0.00004208	
O		1.85420490		5.07043433		3.26821381		-0.00016691		-0.00030049		-0.00005745	
O		3.25505627		2.47553399		3.51231321		 0.00016691		-0.00030049		 0.00005745	
O		4.40885184		2.85439017		6.63135487		-0.00003417		 0.00003403		-0.00013671	
O		0.70040983		0.25948983		0.14917214		 0.00003417		 0.00003403		 0.00013671	
O		4.63492194		4.16740921		4.69890523		-0.00031686		 0.00007136		-0.00011987	
O		0.47434025		1.57250888		2.08162127		 0.00031686		 0.00007136		 0.00011987	
O		2.29781695		3.43045810		5.43798186		 0.00006481		 0.00031876		-0.00001689	
O		2.81144524		0.83555776		1.34254413		-0.00006481		 0.00031876		 0.00001689	
O		4.84599122		4.35424189		2.16976805		 0.00084990		 0.00005424		-0.00004913	
O		0.26327097		1.75934206		4.61075794		-0.00084990		 0.00005424		 0.00004913	
O		1.99853084		3.65880915		1.22049494		-0.00012412		-0.00026979		-0.00010511	
O		3.11073084		1.06390881		5.56003207		 0.00012412		-0.00026979		 0.00010511	
H		2.33481023		4.16740921		3.31567718		-0.00038435		-0.00017804		 0.00022527	
H		2.77445196		1.57250888		3.46484881		 0.00038435		-0.00017804		-0.00022527	
H		4.92013526		3.62766986		6.67881927		-0.00014912		 0.00014114		 0.00007404	
H		0.18912692		1.03277003		0.10170825		 0.00014912		 0.00014114		-0.00007404	
H		1.56163791		2.83363098		5.24812683		-0.00004338		 0.00010808		 0.00003693	
H		3.54762427		0.23873115		1.53239916		 0.00004338		 0.00010808		-0.00003693	
H		3.95984700		4.93549911		4.95656508		 0.00022978		 0.00016460		-0.00005919	
H		1.14941518		2.34059979		1.82396193		-0.00022978		 0.00016460		 0.00005919	
H		4.77904131		4.42170924		3.01733393		-0.00027814		-0.00013803		-0.00008589	
H		0.33022088		1.82680993		3.76319206		 0.00027814		-0.00013803		 0.00008589	
H		2.10639424		3.59653108		0.35936810		 0.00026935		-0.00011532		 0.00000278	
H		3.00286794		1.00163125		6.42115891		-0.00026935		-0.00011532		-0.00000278	
