# total energy = -9075.49817366 eV	

CRYSTAL	
PRIMVEC	
		5.11310008		0.00000000		0.00000000	
		0.00000000		5.18980170		0.00000000	
		-0.00383994		0.00000000		7.69681602	
PRIMCOORD
   28 1	
Mg		3.87988016		2.66755698		1.93189999		 0.00010241		-0.00031323		 0.00010140	
Mg		1.22938202		0.07265715		5.76491399		-0.00010241		-0.00031323		-0.00010140	
Si		1.27731580		0.06746684		1.92420324		 0.00055200		 0.00075760		-0.00020482	
Si		3.83194690		2.66236718		5.77261023		-0.00055200		 0.00075760		 0.00020482	
O		1.85420490		5.07043433		3.70986396		 0.00021749		-0.00034985		-0.00021364	
O		3.25505627		2.47553399		3.98695001		-0.00021749		-0.00034985		 0.00021364	
O		4.40885184		2.85439017		7.52748395		 0.00008093		-0.00055400		-0.00000935	
O		0.70040983		0.25948983		0.16933002		-0.00008093		-0.00055400		 0.00000935	
O		4.63492194		4.16740921		5.33389192		-0.00070279		-0.00027946		 0.00008946	
O		0.47434025		1.57250888		2.36292205		 0.00070279		-0.00027946		-0.00008946	
O		2.29781695		3.43045810		6.17284529		 0.00017971		-0.00001929		-0.00007599	
O		2.81144524		0.83555776		1.52396919		-0.00017971		-0.00001929		 0.00007599	
O		4.84599122		4.35424189		2.46297980		 0.00072810		-0.00000908		-0.00042159	
O		0.26327097		1.75934206		5.23383316		-0.00072810		-0.00000908		 0.00042159	
O		1.99853084		3.65880915		1.38542719		-0.00025014		-0.00069973		-0.00009034	
O		3.11073084		1.06390881		6.31138730		 0.00025014		-0.00069973		 0.00009034	
H		2.33481023		4.16740921		3.76374223		-0.00007532		 0.00015844		 0.00051668	
H		2.77445196		1.57250888		3.93307226		 0.00007532		 0.00015844		-0.00051668	
H		4.92013526		3.62766986		7.58136222		 0.00022807		 0.00061435		-0.00023141	
H		0.18912692		1.03277003		0.11545175		-0.00022807		 0.00061435		 0.00023141	
H		1.56163791		2.83363098		5.95733426		 0.00012604		 0.00002381		 0.00009857	
H		3.54762427		0.23873115		1.73948023		-0.00012604		 0.00002381		-0.00009857	
H		3.95984700		4.93549911		5.62637096		 0.00015661		-0.00005408		 0.00001951	
H		1.14941518		2.34059979		2.07044301		-0.00015661		-0.00005408		-0.00001951	
H		4.77904131		4.42170924		3.42508218		-0.00018551		 0.00034883		 0.00023753	
H		0.33022088		1.82680993		4.27173230		 0.00018551		 0.00034883		-0.00023753	
H		2.10639424		3.59653108		0.40793079		 0.00009864		 0.00037568		-0.00011204	
H		3.00286794		1.00163125		7.28888318		-0.00009864		 0.00037568		 0.00011204	
