# total energy = -9073.90034346 eV	

CRYSTAL	
PRIMVEC	
		5.11310008		0.00000000		0.00000000	
		0.00000000		5.18980170		0.00000000	
		-0.00383994		0.00000000		6.59726942	
PRIMCOORD
   28 1	
Mg		3.87988016		2.66755698		1.65591428		 0.00033995		 0.00030550		 0.00011439	
Mg		1.22938202		0.07265715		4.94135514		-0.00033995		 0.00030550		-0.00011439	
Si		1.27731580		0.06746684		1.64931684		 0.00001462		 0.00011272		 0.00007282	
Si		3.83194690		2.66236718		4.94795206		-0.00001462		 0.00011272		-0.00007282	
O		1.85420490		5.07043433		3.17988398		 0.00024863		-0.00053954		-0.00048734	
O		3.25505627		2.47553399		3.41738492		-0.00024863		-0.00053954		 0.00048734	
O		4.40885184		2.85439017		6.45212896		-0.00024953		 0.00008742		-0.00076147	
O		0.70040983		0.25948983		0.14513995		 0.00024953		 0.00008742		 0.00076147	
O		4.63492194		4.16740921		4.57190809		 0.00000076		 0.00031338		-0.00069517	
O		0.47434025		1.57250888		2.02536081		-0.00000076		 0.00031338		 0.00069517	
O		2.29781695		3.43045810		5.29100989		-0.00007516		-0.00034614		 0.00065772	
O		2.81144524		0.83555776		1.30625902		 0.00007516		-0.00034614		-0.00065772	
O		4.84599122		4.35424189		2.11112591		 0.00017171		-0.00061337		 0.00043500	
O		0.26327097		1.75934206		4.48614300		-0.00017171		-0.00061337		-0.00043500	
O		1.99853084		3.65880915		1.18750778		 0.00047400		-0.00015590		-0.00054537	
O		3.11073084		1.06390881		5.40976113		-0.00047400		-0.00015590		 0.00054537	
H		2.33481023		4.16740921		3.22606397		-0.00082892		-0.00016338		 0.00022665	
H		2.77445196		1.57250888		3.37120494		 0.00082892		-0.00016338		-0.00022665	
H		4.92013526		3.62766986		6.49830997		-0.00010049		 0.00016527		 0.00001100	
H		0.18912692		1.03277003		0.09895894		 0.00010049		 0.00016527		-0.00001100	
H		1.56163791		2.83363098		5.10628585		-0.00011056		 0.00029309		-0.00011336	
H		3.54762427		0.23873115		1.49098305		 0.00011056		 0.00029309		 0.00011336	
H		3.95984700		4.93549911		4.82260390		 0.00018178		 0.00035506		 0.00011325	
H		1.14941518		2.34059979		1.77466500		-0.00018178		 0.00035506		-0.00011325	
H		4.77904131		4.42170924		2.93578509		 0.00003195		 0.00006965		-0.00087340	
H		0.33022088		1.82680993		3.66148381		-0.00003195		 0.00006965		 0.00087340	
H		2.10639424		3.59653108		0.34965526		 0.00023224		 0.00011627		 0.00018623	
H		3.00286794		1.00163125		6.24761416		-0.00023224		 0.00011627		-0.00018623	
