# total energy = -9075.69290734 eV	

CRYSTAL	
PRIMVEC	
		5.11310008		0.00000000		0.00000000	
		0.00000000		5.18980170		0.00000000	
		-0.00383994		0.00000000		7.51355740	
PRIMCOORD
   28 1	
Mg		3.87988016		2.66755698		1.88590305		-0.00003910		 0.00016274		 0.00060046	
Mg		1.22938202		0.07265715		5.62765384		 0.00003910		 0.00016274		-0.00060046	
Si		1.27731580		0.06746684		1.87838884		-0.00000993		-0.00017164		-0.00003578	
Si		3.83194690		2.66236718		5.63516703		 0.00000993		-0.00017164		 0.00003578	
O		1.85420490		5.07043433		3.62153414		-0.00004162		 0.00019416		 0.00067066	
O		3.25505627		2.47553399		3.89202224		 0.00004162		 0.00019416		-0.00067066	
O		4.40885184		2.85439017		7.34825803		 0.00036143		 0.00003756		-0.00000702	
O		0.70040983		0.25948983		0.16529783		-0.00036143		 0.00003756		 0.00000702	
O		4.63492194		4.16740921		5.20689530		 0.00004957		-0.00001785		 0.00001100	
O		0.47434025		1.57250888		2.30666210		-0.00004957		-0.00001785		-0.00001100	
O		2.29781695		3.43045810		6.02587230		-0.00039115		-0.00020821		 0.00042919	
O		2.81144524		0.83555776		1.48768408		 0.00039115		-0.00020821		-0.00042919	
O		4.84599122		4.35424189		2.40433816		 0.00090090		 0.00030316		-0.00035678	
O		0.26327097		1.75934206		5.10921822		-0.00090090		 0.00030316		 0.00035678	
O		1.99853084		3.65880915		1.35244003		-0.00004857		-0.00057339		-0.00013714	
O		3.11073084		1.06390881		6.16111584		 0.00004857		-0.00057339		 0.00013714	
H		2.33481023		4.16740921		3.67412902		-0.00010565		-0.00005442		 0.00051600	
H		2.77445196		1.57250888		3.83942787		 0.00010565		-0.00005442		-0.00051600	
H		4.92013526		3.62766986		7.40085292		-0.00012669		 0.00021307		-0.00011933	
H		0.18912692		1.03277003		0.11270295		 0.00012669		 0.00021307		 0.00011933	
H		1.56163791		2.83363098		5.81549329		-0.00002815		-0.00034283		-0.00005284	
H		3.54762427		0.23873115		1.69806412		 0.00002815		-0.00034283		 0.00005284	
H		3.95984700		4.93549911		5.49241030		-0.00001760		-0.00019524		-0.00003122	
H		1.14941518		2.34059979		2.02114710		 0.00001760		-0.00019524		 0.00003122	
H		4.77904131		4.42170924		3.34353284		-0.00025772		 0.00038664		-0.00031644	
H		0.33022088		1.82680993		4.17002405		 0.00025772		 0.00038664		 0.00031644	
H		2.10639424		3.59653108		0.39821795		 0.00031858		 0.00026626		-0.00003171	
H		3.00286794		1.00163125		7.11533792		-0.00031858		 0.00026626		 0.00003171	
