# total energy = -2552.78619376 eV

CRYSTAL
PRIMVEC
		3.14199893		0.00000000		0.25135928
		-1.57100104		2.72105054		-0.12568122
		0.38127999		0.00000000		4.76599834
PRIMECORD
   5 1
Mg		0.00000000		0.00000000		0.00000000		0.00000000		0.00000000		0.00000000
O		0.08449196		1.81403485		1.05614587		-0.00039751		 0.00010655		 0.00023181
O		1.86778781		0.90701695		3.83553369		 0.00039751		-0.00010655		-0.00023181
H		0.16406485		1.81403485		2.05080996		 0.00028625		 0.00034497		-0.00084154
H		1.78821493		0.90701695		2.84086991		-0.00028625		-0.00034497		 0.00084154
