# total energy = -2552.78619376 eV

CRYSTAL
PRIMVEC
		3.14199893		0.00000000		-0.25135928
		-1.57100104		2.72105054		0.12568122
		-0.38127999		0.00000000		4.76599834
PRIMECORD
   5 1
Mg		0.00000000		0.00000000		0.00000000		0.00000000		0.00000000		0.00000000
O		-0.08449196		1.81403485		1.05614587		 0.00039752		 0.00010655		 0.00023183
O		1.27421206		0.90701695		3.58417378		-0.00039752		-0.00010655		-0.00023183
H		-0.16406485		1.81403485		2.05080996		-0.00028624		 0.00034497		-0.00084156
H		1.35378495		0.90701695		2.58950999		 0.00028624		-0.00034497		 0.00084156
