# total energy = -2552.6954629 eV

CRYSTAL
PRIMVEC
		3.14200054		0.00000000		0.37703931
		-1.57099869		2.72105322		-0.18852123
		0.57192127		0.00000000		4.76599897
PRIMECORD
   5 1
Mg		0.00000000		0.00000000		0.00000000		0.00000000		0.00000000		0.00000000
O		0.12673704		1.81403516		1.05614613		-0.00002692		-0.00080323		-0.00005277
O		2.01618197		0.90701711		3.89837408		 0.00002692		 0.00080323		 0.00005277
H		0.24609690		1.81403516		2.05080996		-0.00003167		 0.00015787		-0.00019388
H		1.89682305		0.90701711		2.90370993		 0.00003167		-0.00015787		 0.00019388
