# total energy = -2552.6332783 eV

CRYSTAL
PRIMVEC
		3.14200087		0.00000000		-0.50272154
		-1.57099884		2.72105260		0.25135918
		-0.76256065		0.00000000		4.76599849
PRIMECORD
   5 1
Mg		0.00000000		0.00000000		0.00000000		0.00000000		0.00000000		0.00000000
O		-0.16898293		1.81403496		1.05614575		-0.00019819		-0.00052617		-0.00065645
O		0.97742303		0.90701700		3.45849356		 0.00019819		 0.00052617		 0.00065645
H		-0.32813008		1.81403496		2.05080993		 0.00013145		-0.00016673		 0.00058744
H		1.13656891		0.90701700		2.46382970		-0.00013145		 0.00016673		-0.00058744
