# total energy = -24709.796885 eV	

CRYSTAL	
PRIMVEC	
		9.03899958		0.00000000		0.00000000	
		0.00000000		8.69500237		1.04339884	
		0.00000000		0.61068385		5.08900196	
PRIMCOORD
   40 1	
O		1.09371895		0.78721732		0.38989182		 0.00024663		-0.00037257		-0.00022032	
O		1.09371895		8.28506024		3.79749162		 0.00041449		-0.00019896		-0.00073878	
O		5.61321874		5.36811903		2.85660769		 0.00041449		 0.00019896		 0.00073878	
O		5.61321874		4.17096320		5.22080775		 0.00024663		 0.00037257		 0.00022032	
O		3.40679894		2.20345772		0.79407521		 0.00030721		 0.00040811		 0.00074834	
O		3.40679894		6.92585774		3.86862222		 0.00001217		 0.00044811		-0.00028792	
O		7.92629783		6.72732154		2.78547800		 0.00001217		-0.00044811		 0.00028792	
O		7.92629783		2.75472190		4.81662436		 0.00030721		-0.00040811		-0.00074834	
O		3.23415405		8.52357232		2.40716694		-0.00000748		 0.00046088		-0.00076130	
O		3.23415405		0.81386158		3.98986051		 0.00034679		-0.00055432		 0.00025125	
O		7.75365384		4.14431803		1.62083906		 0.00034679		 0.00055432		-0.00025125	
O		7.75365384		5.12960695		4.24693237		-0.00000748		-0.00046088		 0.00076130	
O		7.93985633		8.43555145		5.40152175		-0.00072193		-0.00045665		 0.00010920	
O		7.93985633		1.02292008		2.00414597		 0.00009067		 0.00019682		 0.00036606	
O		3.42035744		3.93525953		3.60655360		 0.00009067		-0.00019682		-0.00036606	
O		3.42035744		5.21762692		1.25257756		-0.00072193		 0.00045665		-0.00010920	
O		5.61683344		7.19626664		5.67212048		 0.00005302		 0.00032353		 0.00012262	
O		5.61683344		2.36431123		2.58442714		-0.00039851		-0.00091453		 0.00020792	
O		1.09733455		2.59386928		3.02627243		-0.00039851		 0.00091453		-0.00020792	
O		1.09733455		6.45691263		0.98197884		 0.00005302		-0.00032353		-0.00012262	
O		5.84280843		8.61835437		3.85403960		-0.00031450		 0.00014694		-0.00032468	
O		5.84280843		0.45795278		0.36693186		-0.00018750		 0.00027848		-0.00015821	
O		1.32330863		4.50022684		5.24376771		-0.00018750		-0.00027848		 0.00015821	
O		1.32330863		5.03482400		2.80005971		-0.00031450		-0.00014694		 0.00032468	
Si		2.68187118		0.81301734		0.44063677		 0.00036013		 0.00042987		-0.00004507	
Si		2.68187118		8.27086359		3.84343776		 0.00046637		-0.00009419		-0.00090344	
Si		7.20137097		5.38231569		2.81066155		 0.00046637		 0.00009419		 0.00090344	
Si		7.20137097		4.14516318		5.17006280		 0.00036013		-0.00042987		 0.00004507	
Si		6.34447381		8.44233341		5.33662897		-0.00094091		-0.00005693		-0.00006960	
Si		6.34447381		1.00013819		1.93570718		 0.00030893		-0.00066382		-0.00001593	
Si		1.82497402		3.95804143		3.67499419		 0.00030893		 0.00066382		 0.00001593	
Si		1.82497402		5.21084587		1.31747125		-0.00094091		 0.00005693		 0.00006960	
Mg		9.01640118		1.27283576		3.74399521		-0.00022403		-0.00022298		 0.00055904	
Mg		9.01640118		7.99131626		2.04235292		-0.00023593		 0.00030160		 0.00092022	
Mg		4.49690139		5.66186212		4.61174640		-0.00023593		-0.00030160		-0.00092022	
Mg		4.49690139		3.68534295		1.86670527		-0.00022403		 0.00022298		-0.00055904	
Mg		0.05423400		2.41553344		1.36874497		-0.00007012		 0.00047576		 0.00072148	
Mg		0.05423400		6.84752035		4.40844303		 0.00049452		 0.00071941		 0.00028581	
Mg		4.57373379		6.80565893		2.24565719		 0.00049452		-0.00071941		-0.00028581	
Mg		4.57373379		2.54264618		4.24195460		-0.00007012		-0.00047576		-0.00072148	
