# total energy = -24715.2581507 eV	

CRYSTAL	
PRIMVEC	
		9.03899958		0.00000000		0.00000000	
		0.00000000		8.69500237		0.34780263	
		0.00000000		0.20355827		5.08900196	
PRIMCOORD
   40 1	
O		1.09371895		0.76323776		0.32979242		-0.00044397		 0.00008246		-0.00028918	
O		1.09371895		8.05752060		3.16199210		 0.00028862		 0.00000750		-0.00034765	
O		5.61321874		5.18853761		2.44870747		 0.00028862		-0.00000750		 0.00034765	
O		5.61321874		3.78782170		4.93310814		-0.00044397		-0.00008246		 0.00028918	
O		3.40679894		2.16046552		0.62295700		 0.00016825		 0.00000143		-0.00050317	
O		3.40679894		6.67930547		3.34413969		 0.00026726		 0.00018755		-0.00001262	
O		7.92629783		6.56675365		2.26655988		 0.00026726		-0.00018755		 0.00001262	
O		7.92629783		2.39059393		4.63994265		 0.00016825		-0.00000143		 0.00050317	
O		3.23415405		8.41120762		1.73876456		-0.00055725		-0.00008852		-0.00055703	
O		3.23415405		0.49793679		3.96266307		-0.00052550		 0.00070090		-0.00030759	
O		7.75365384		4.05312266		1.30023659		-0.00052550		-0.00070090		 0.00030759	
O		7.75365384		4.83485150		3.87193501		-0.00055725		 0.00008852		 0.00055703	
O		7.93985633		8.07928018		4.76942994		 0.00035951		 0.00013249		-0.00021704	
O		7.93985633		0.87020889		1.94063796		-0.00002357		-0.00008838		-0.00048191	
O		3.42035744		3.68085056		3.32226170		-0.00002357		 0.00008838		 0.00048191	
O		3.42035744		5.16677803		0.84126963		 0.00035951		-0.00013249		 0.00021704	
O		5.61683344		6.80596083		5.14325675		 0.00027836		-0.00017240		-0.00009105	
O		5.61683344		2.17756460		2.41769195		-0.00009959		 0.00005702		-0.00031941	
O		1.09733455		2.37349486		2.84520771		-0.00009959		-0.00005702		 0.00031941	
O		1.09733455		6.44009738		0.46744282		 0.00027836		 0.00017240		 0.00009105	
O		5.84280843		8.38947153		3.19203683		-0.00027479		 0.00057698		 0.00032453	
O		5.84280843		0.43263002		0.33333480		 0.00014882		 0.00012473		-0.00062111	
O		1.32330863		4.11842944		4.92956576		 0.00014882		-0.00012473		 0.00062111	
O		1.32330863		4.85658668		2.41866274		-0.00027479		-0.00057698		-0.00032453	
Si		2.68187118		0.78516999		0.37893656		-0.00016212		 0.00012870		-0.00026264	
Si		2.68187118		8.03945706		3.20953814		 0.00024301		 0.00046972		-0.00012503	
Si		7.20137097		5.20660296		2.40116233		 0.00024301		-0.00046972		 0.00012503	
Si		7.20137097		3.76588947		4.88396310		-0.00016212		-0.00012870		 0.00026264	
Si		6.34447381		8.09139606		4.70335485		 0.00045624		 0.00000312		-0.00020600	
Si		6.34447381		0.85276091		1.87338057		-0.00048043		 0.00050074		-0.00018566	
Si		1.82497402		3.69829854		3.38951909		-0.00048043		-0.00050074		 0.00018566	
Si		1.82497402		5.15466306		0.90734472		 0.00045624		-0.00000312		 0.00020600	
Mg		9.01640118		0.98133797		3.67714819		-0.00006598		-0.00026513		 0.00044956	
Mg		9.01640118		7.90337854		1.41360101		-0.00014628		-0.00068058		-0.00084713	
Mg		4.49690139		5.34267967		4.19709946		-0.00014628		 0.00068058		 0.00084713	
Mg		4.49690139		3.56972058		1.58575237		-0.00006598		 0.00026513		-0.00044956	
Mg		0.05423400		2.32796180		1.18601075		 0.00038334		-0.00022087		-0.00029011	
Mg		0.05423400		6.55638863		3.89557652		 0.00018609		-0.00025733		-0.00010084	
Mg		4.57373379		6.68966958		1.71512305		 0.00018609		 0.00025733		 0.00010084	
Mg		4.57373379		2.22309766		4.07688891		 0.00038334		 0.00022087		 0.00029011	
