# total energy = -24713.0139084 eV	

CRYSTAL	
PRIMVEC	
		9.03899958		0.00000000		0.00000000	
		0.00000000		8.69500237		-0.69559621	
		0.00000000		-0.40711654		5.08900196	
PRIMCOORD
   40 1	
O		1.09371895		0.72726887		0.23964196		 0.00034386		 0.00012801		 0.00009775	
O		1.09371895		7.71621159		2.20874192		 0.00021225		 0.00003004		-0.00005806	
O		5.61321874		4.91916639		1.83685759		 0.00021225		-0.00003004		 0.00005806	
O		5.61321874		3.21311126		4.50155738		 0.00034386		-0.00012801		-0.00009775	
O		3.40679894		2.09597769		0.36628105		 0.00005358		 0.00017385		-0.00013696	
O		3.40679894		6.30947751		2.55741590		-0.00020396		-0.00032304		-0.00054128	
O		7.92629783		6.32590137		1.48818360		-0.00020396		 0.00032304		 0.00054128	
O		7.92629783		1.84440154		4.37491918		 0.00005358		-0.00017385		 0.00013696	
O		3.23415405		8.24265920		0.73616234		-0.00011867		-0.00052515		-0.00024248	
O		3.23415405		0.02404916		3.92186554		-0.00006548		 0.00031519		-0.00002334	
O		7.75365384		3.91633096		0.81933379		-0.00006548		-0.00031519		 0.00002334	
O		7.75365384		4.39271878		3.30943807		-0.00011867		 0.00052515		 0.00024248	
O		7.93985633		7.54487464		3.82129221		-0.00019672		 0.00030655		-0.00005038	
O		7.93985633		0.64114257		1.84537594		 0.00004107		-0.00001270		 0.00028765	
O		3.42035744		3.29923665		2.89582430		 0.00004107		 0.00001270		-0.00028765	
O		3.42035744		5.09050334		0.22430820		-0.00019672		-0.00030655		 0.00005038	
O		5.61683344		6.22050212		4.34995979		 0.00005239		-0.00012321		 0.00020699	
O		5.61683344		1.89744600		2.16758916		-0.00037822		 0.00008528		 0.00016267	
O		1.09733455		2.04293412		2.57361108		-0.00037822		-0.00008528		-0.00016267	
O		1.09733455		6.41487677		-0.30436029		 0.00005239		 0.00012321		-0.00020699	
O		5.84280843		8.04614773		2.19903313		 0.00010331		-0.00011469		-0.00016098	
O		5.84280843		0.39464634		0.28293786		 0.00007816		 0.00051682		 0.00000351	
O		1.32330863		3.54573379		4.45826147		 0.00007816		-0.00051682		-0.00000351	
O		1.32330863		4.58923115		1.84656728		 0.00010331		 0.00011469		 0.00016098	
Si		2.68187118		0.74339896		0.28638805		 0.00018446		-0.00032311		 0.00019580	
Si		2.68187118		7.69234592		2.25868781		-0.00021982		-0.00007372		-0.00028044	
Si		7.20137097		4.94303296		1.78691260		-0.00021982		 0.00007372		 0.00028044	
Si		7.20137097		3.19698026		4.45481219		 0.00018446		 0.00032311		-0.00019580	
Si		6.34447381		7.56499003		3.75344367		-0.00011319		-0.00013322		-0.00020982	
Si		6.34447381		0.63169501		1.77989200		 0.00028125		-0.00026263		-0.00008928	
Si		1.82497402		3.30868512		2.96130823		 0.00028125		 0.00026263		 0.00008928	
Si		1.82497402		5.07038885		0.29215583		-0.00011319		 0.00013322		 0.00020982	
Mg		9.01640118		0.54409173		3.57687676		-0.00017696		 0.00009986		-0.00033887	
Mg		9.01640118		7.77147242		0.47047089		 0.00012096		-0.00007189		 0.00076420	
Mg		4.49690139		4.86390646		3.57512862		 0.00012096		 0.00007189		-0.00076420	
Mg		4.49690139		3.39628749		1.16432257		-0.00017696		-0.00009986		 0.00033887	
Mg		0.05423400		2.19660525		0.91191032		-0.00016344		 0.00001818		-0.00000042	
Mg		0.05423400		6.11969196		3.12627811		 0.00016519		 0.00011745		 0.00008317	
Mg		4.57373379		6.51568692		0.91932230		 0.00016519		-0.00011745		-0.00008317	
Mg		4.57373379		1.74377487		3.82928992		-0.00016344		-0.00001818		 0.00000042	
