# total energy = -24709.796885 eV	

CRYSTAL	
PRIMVEC	
		9.03899958		0.00000000		0.00000000	
		0.00000000		8.69500237		-1.04339884	
		0.00000000		-0.61068385		5.08900196	
PRIMCOORD
   40 1	
O		1.09371895		0.71527863		0.20959180		 0.00041448		 0.00019892		-0.00073875	
O		1.09371895		7.60244132		1.89099216		 0.00024656		 0.00037255		-0.00022029	
O		5.61321874		4.82937658		1.63290793		 0.00024656		-0.00037255		 0.00022029	
O		5.61321874		3.02154051		4.35770803		 0.00041448		-0.00019892		 0.00073875	
O		3.40679894		2.07448204		0.28072240		 0.00001223		-0.00044798		-0.00028784	
O		3.40679894		6.18620183		2.29517464		 0.00030717		-0.00040809		 0.00074813	
O		7.92629783		6.24561698		1.22872454		 0.00030717		 0.00040809		-0.00074813	
O		7.92629783		1.66233801		4.28657743		 0.00001223		 0.00044798		 0.00028784	
O		3.23415405		8.18647730		0.40196070		 0.00034676		 0.00055427		 0.00025117	
O		3.23415405		-0.13391278		3.90826637		-0.00000746		-0.00046085		-0.00076132	
O		7.75365384		3.87073283		0.65903256		-0.00000746		 0.00046085		 0.00076132	
O		7.75365384		4.24534151		3.12193849		 0.00034676		-0.00055427		-0.00025117	
O		7.93985633		7.36673946		3.50524721		 0.00009082		-0.00019666		 0.00036613	
O		7.93985633		0.56478652		1.81362194		-0.00072179		 0.00045660		 0.00010925	
O		3.42035744		3.17203172		2.75367880		-0.00072179		-0.00045660		-0.00010925	
O		3.42035744		5.06507844		0.01865378		 0.00009082		 0.00019666		-0.00036613	
O		5.61683344		6.02534831		4.08552748		-0.00039853		 0.00091455		 0.00020789	
O		5.61683344		1.80407314		2.08422066		 0.00005299		-0.00032363		 0.00012260	
O		1.09733455		1.93274691		2.48307917		 0.00005299		 0.00032363		-0.00012260	
O		1.09733455		6.40646959		-0.56162739		-0.00039853		-0.00091455		-0.00020789	
O		5.84280843		7.93170677		1.86803219		-0.00018750		-0.00027853		-0.00015820	
O		5.84280843		0.38198360		0.26613978		-0.00031446		-0.00014687		-0.00032469	
O		1.32330863		3.35483464		4.30116095		-0.00031446		 0.00014687		 0.00032469	
O		1.32330863		4.50011294		1.65586789		-0.00018750		 0.00027853		 0.00015820	
Si		2.68187118		0.72947619		0.25553794		 0.00046625		 0.00009413		-0.00090338	
Si		2.68187118		7.57664221		1.94173710		 0.00036016		-0.00042987		-0.00004513	
Si		7.20137097		4.85517660		1.58216299		 0.00036016		 0.00042987		 0.00004513	
Si		7.20137097		3.00734386		4.31176189		 0.00046625		-0.00009413		 0.00090338	
Si		6.34447381		7.38952045		3.43680661		 0.00030886		 0.00066379		-0.00001594	
Si		6.34447381		0.55800637		1.74872915		-0.00094097		 0.00005698		-0.00006956	
Si		1.82497402		3.17881368		2.81857068		-0.00094097		-0.00005698		 0.00006956	
Si		1.82497402		5.04229745		0.08709257		 0.00030886		-0.00066379		 0.00001594	
Mg		9.01640118		0.39834329		3.54345415		-0.00023589		-0.00030164		 0.00092021	
Mg		9.01640118		7.72750401		0.15609539		-0.00022400		 0.00022296		 0.00055897	
Mg		4.49690139		4.70431570		3.36780470		-0.00022400		-0.00022296		-0.00055897	
Mg		4.49690139		3.33847676		1.02384658		-0.00023589		 0.00030164		-0.00092021	
Mg		0.05423400		2.15281853		0.82054321		 0.00049447		-0.00071942		 0.00028578	
Mg		0.05423400		5.97412611		2.86984531		-0.00007013		-0.00047567		 0.00072150	
Mg		4.57373379		6.45769270		0.65405478		-0.00007013		 0.00047567		-0.00072150	
Mg		4.57373379		1.58400061		3.74675752		 0.00049447		 0.00071942		-0.00028578	
