# total energy = -18385.6211859 eV

CRYSTAL
PRIMVEC
		4.81499975		0.00000000		0.00000000
		0.00000000		11.07999815		0.00000000
		0.00000000		0.00000000		6.36999910
PRIMECORD
   28 1
Mg		0.00000000		0.00000000		0.00000000		-0.00000000		0.00000000		0.00000000
Mg		2.40749987		5.53999956		0.00000000		0.00000000		0.00000000		0.00000000
Mg		0.00000000		0.00000000		3.18500003		0.00000000		-0.00000000		0.00000000
Mg		2.40749987		5.53999956		3.18500003		0.00000000		-0.00000000		0.00000000
Ca		4.73314475		2.84756003		1.59250002		 0.00025177		-0.00083139		0.00000000
Ca		0.08185500		8.23243956		4.77749957		-0.00025177		 0.00083139		0.00000000
Ca		2.32564488		2.69244000		4.77749957		 0.00025177		 0.00083139		0.00000000
Ca		2.48935487		8.38755959		1.59250002		-0.00025177		-0.00083139		0.00000000
Si		1.94044490		0.95287978		1.59250002		-0.00059303		 0.00047473		0.00000000
Si		2.87455485		10.12711933		4.77749957		 0.00059303		-0.00047473		0.00000000
Si		4.34794477		4.58711977		4.77749957		-0.00059303		-0.00047473		-0.00000000
Si		0.46705498		6.49287982		1.59250002		 0.00059303		 0.00047473		0.00000000
O		3.67865981		0.74235981		1.59250002		-0.00016311		-0.00027277		0.00000000
O		1.13633994		10.33763930		4.77749957		 0.00016311		 0.00027277		0.00000000
O		1.27115993		4.79763975		4.77749957		-0.00016311		 0.00027277		0.00000000
O		3.54383981		6.28235985		1.59250002		 0.00016311		-0.00027277		0.00000000
O		3.54383981		5.14111968		1.59250002		 0.00039055		 0.00043901		0.00000000
O		1.27115993		5.93887991		4.77749957		-0.00039055		-0.00043901		0.00000000
O		1.13633994		0.39887988		4.77749957		 0.00039055		-0.00043901		0.00000000
O		3.67865981		10.68111924		1.59250002		-0.00039055		 0.00043901		0.00000000
O		1.20374994		1.69524007		0.19110012		 0.00070298		-0.00039630		 0.00014390
O		3.61124981		9.38475952		6.17889946		-0.00070298		 0.00039630		-0.00014390
O		3.61124981		3.84475996		6.17889946		 0.00070298		 0.00039630		-0.00014390
O		1.20374994		7.23523963		0.19110012		-0.00070298		-0.00039630		 0.00014390
O		3.61124981		9.38475952		3.37609967		-0.00070298		 0.00039630		 0.00014390
O		1.20374994		1.69524007		2.99389991		 0.00070298		-0.00039630		-0.00014390
O		1.20374994		7.23523963		2.99389991		-0.00070298		-0.00039630		-0.00014390
O		3.61124981		3.84475996		3.37609967		 0.00070298		 0.00039630		 0.00014390
