# total energy = -92487.5164438 eV	

CRYSTAL	
PRIMVEC	
		18.50000672		2.96000932		0.00000000	
		2.86399089		17.89998989		0.00000000	
		0.00000000		0.00000000		5.26999728	
PRIMCOORD
   164 1	
Mg		2.89188026		3.42779799		2.00259972		 0.00012722		 0.00014352		 0.00102078	
Mg		18.47211922		17.43218997		3.26739944		-0.00012722		-0.00014352		-0.00102078	
Mg		9.22211961		15.95219093		4.63760023		-0.00012722		-0.00014352		 0.00102078	
Mg		12.14187987		4.90779703		0.63240080		 0.00012722		 0.00014352		-0.00102078	
Mg		18.01387805		14.56819346		3.26739944		 0.00063414		-0.00030253		-0.00073611	
Mg		3.35011955		6.29179638		2.00259972		-0.00063414		 0.00030253		 0.00073611	
Mg		12.60011916		7.77179541		0.63240080		-0.00063414		 0.00030253		-0.00073611	
Mg		8.76387844		13.08819443		4.63760023		 0.00063414		-0.00030253		 0.00073611	
Mg		2.63411996		1.81679984		4.58489970		 0.00052745		-0.00026313		-0.00005407	
Mg		18.72987952		19.04319000		0.68509946		-0.00052745		 0.00026313		 0.00005407	
Mg		9.47987804		17.56319096		1.94989918		-0.00052745		 0.00026313		-0.00005407	
Mg		11.88411957		3.29679888		3.32009998		 0.00052745		-0.00026313		 0.00005407	
Mg		17.75611962		12.95719344		0.68509946		-0.00079149		 0.00038070		 0.00029734	
Mg		3.60787986		7.90279640		4.58489970		 0.00079149		-0.00038070		-0.00029734	
Mg		12.85787947		9.38279544		3.32009998		 0.00079149		-0.00038070		 0.00029734	
Mg		8.50611814		11.47719440		1.94989918		-0.00079149		 0.00038070		-0.00029734	
Mg		5.21171738		17.92679074		2.00259972		-0.00028175		-0.00074216		 0.00040322	
Mg		16.15228023		2.93319910		3.26739944		 0.00028175		 0.00074216		-0.00040322	
Mg		6.90228062		1.45320006		4.63760023		 0.00028175		 0.00074216		 0.00040322	
Mg		14.46171699		19.40679165		0.63240080		-0.00028175		-0.00074216		-0.00040322	
Mg		17.46971866		11.16719445		3.26739944		-0.00001501		-0.00007812		 0.00055938	
Mg		3.89427895		9.69279352		2.00259972		 0.00001501		 0.00007812		-0.00055938	
Mg		13.14427856		11.17279443		0.63240080		 0.00001501		 0.00007812		 0.00055938	
Mg		8.21971905		9.68719541		4.63760023		-0.00001501		-0.00007812		-0.00055938	
Mg		3.12099991		4.85979718		4.58489970		 0.00039702		 0.00077875		 0.00028874	
Mg		18.24299957		16.00019265		0.68509946		-0.00039702		-0.00077875		-0.00028874	
Mg		8.99299809		14.52019362		1.94989918		-0.00039702		-0.00077875		 0.00028874	
Mg		12.37099952		6.33979810		3.32009998		 0.00039702		 0.00077875		-0.00028874	
Si		2.90347929		14.76679143		1.52830052		-0.00052991		-0.00011443		 0.00037435	
Si		18.46052019		6.09319841		3.74170051		 0.00052991		 0.00011443		-0.00037435	
Si		9.21052058		4.61319750		4.16329917		 0.00052991		 0.00011443		 0.00037435	
Si		12.15347702		16.24679234		1.10669999		-0.00052991		-0.00011443		-0.00037435	
Si		18.86148004		8.59919700		3.74170051		-0.00090381		-0.00035358		-0.00012718	
Si		2.50251944		12.26079284		1.52830052		 0.00090381		 0.00035358		 0.00012718	
Si		11.75251718		13.74079375		1.10669999		 0.00090381		 0.00035358		-0.00012718	
Si		9.61147855		7.11919609		4.16329917		-0.00090381		-0.00035358		 0.00012718	
Si		3.18987838		16.55679042		4.16329917		 0.00083131		-0.00039294		-0.00026978	
Si		18.17411923		4.30319942		1.10669999		-0.00083131		 0.00039294		 0.00026978	
Si		8.92411962		2.82319851		1.52830052		-0.00083131		 0.00039294		-0.00026978	
Si		12.43987799		18.03679133		3.74170051		 0.00083131		-0.00039294		 0.00026978	
Si		19.14787913		10.38919599		1.10669999		 0.00041784		 0.00054408		-0.00046185	
Si		2.21611848		10.47079385		4.16329917		-0.00041784		-0.00054408		 0.00046185	
Si		11.46611809		11.95079477		3.74170051		-0.00041784		-0.00054408		-0.00046185	
Si		9.89787952		8.90919507		1.52830052		 0.00041784		 0.00054408		 0.00046185	
Si		6.70487984		17.11919050		0.21080027		-0.00046827		 0.00009172		-0.00012055	
Si		14.65911964		3.74079934		5.05920077		 0.00046827		-0.00009172		 0.00012055	
Si		5.40912003		2.26079843		2.84580078		 0.00046827		-0.00009172		-0.00012055	
Si		15.95487945		18.59919141		2.42420025		-0.00046827		 0.00009172		 0.00012055	
Si		15.63287954		9.82679590		5.05920077		 0.00115250		 0.00031471		 0.00035206	
Si		5.73111807		11.03319394		0.21080027		-0.00115250		-0.00031471		-0.00035206	
Si		14.98111955		12.51319298		2.42420025		-0.00115250		-0.00031471		 0.00035206	
Si		6.38287805		8.34679499		2.84580078		 0.00115250		 0.00031471		-0.00035206	
Si		6.41847888		15.32919151		2.84580078		 0.00019445		-0.00011016		 0.00007463	
Si		14.94551873		5.53079833		2.42420025		-0.00019445		 0.00011016		-0.00007463	
Si		5.69551912		4.05079742		0.21080027		-0.00019445		 0.00011016		 0.00007463	
Si		15.66847849		16.80919242		5.05920077		 0.00019445		-0.00011016		-0.00007463	
Si		15.34647858		8.03679691		2.42420025		-0.00069473		-0.00000300		 0.00002912	
Si		6.01751903		12.82319293		2.84580078		 0.00069473		 0.00000300		-0.00002912	
Si		15.26751864		14.30319196		5.05920077		 0.00069473		 0.00000300		 0.00002912	
Si		6.09647896		6.55679600		0.21080027		-0.00069473		-0.00000300		-0.00002912	
O		1.31048014		1.43059966		1.05399946		-0.00124031		 0.00012497		-0.00098548	
O		20.05351934		19.42939018		4.21599970		 0.00124031		-0.00012497		 0.00098548	
O		10.80351973		17.94939114		3.68899997		 0.00124031		-0.00012497		-0.00098548	
O		10.56047975		2.91059870		1.58099919		-0.00124031		 0.00012497		 0.00098548	
O		19.02247812		12.98539382		4.21599970		-0.00031809		-0.00121430		 0.00108935	
O		2.34151948		7.87459602		1.05399946		 0.00031809		 0.00121430		-0.00108935	
O		11.59151909		9.35459506		1.58099919		 0.00031809		 0.00121430		 0.00108935	
O		9.77247851		11.50539478		3.68899997		-0.00031809		-0.00121430		-0.00108935	
O		1.62551989		3.39959762		3.68899997		 0.00047439		-0.00021108		-0.00231419	
O		19.73847959		17.46039222		1.58099919		-0.00047439		 0.00021108		 0.00231419	
O		10.48847811		15.98039131		1.05399946		-0.00047439		 0.00021108		-0.00231419	
O		10.87551950		4.87959853		4.21599970		 0.00047439		-0.00021108		 0.00231419	
O		19.33751974		14.95439364		1.58099919		 0.00043749		-0.00097682		-0.00051275	
O		2.02647974		5.90559620		3.68899997		-0.00043749		 0.00097682		 0.00051275	
O		11.27647935		7.38559711		4.21599970		-0.00043749		 0.00097682		-0.00051275	
O		10.08751826		13.47439273		1.05399946		 0.00043749		-0.00097682		 0.00051275	
O		3.25799807		13.60259279		1.05399946		 0.00062032		-0.00018829		-0.00009575	
O		18.10599954		7.25739705		4.21599970		-0.00062032		 0.00018829		 0.00009575	
O		8.85599993		5.77739801		3.68899997		-0.00062032		 0.00018829		-0.00009575	
O		12.50799955		15.08259370		1.58099919		 0.00062032		-0.00018829		 0.00009575	
O		1.82600075		4.65259784		1.05399946		-0.00054746		 0.00066175		-0.00008332	
O		19.53799873		16.20739200		4.21599970		 0.00054746		-0.00066175		 0.00008332	
O		10.28799912		14.72739296		3.68899997		 0.00054746		-0.00066175		-0.00008332	
O		11.07600036		6.13259876		1.58099919		-0.00054746		 0.00066175		 0.00008332	
O		1.10999928		0.17759943		3.68899997		 0.00080145		-0.00082217		-0.00103805	
O		17.38999994		2.78240052		1.58099919		-0.00080145		 0.00082217		 0.00103805	
O		8.14000033		1.30239960		1.05399946		-0.00080145		 0.00082217		-0.00103805	
O		10.36000076		1.65760035		4.21599970		 0.00080145		-0.00082217		 0.00103805	
O		18.82199913		11.73239546		1.58099919		-0.00052198		-0.00098550		-0.00026912	
O		2.54199847		9.12759438		3.68899997		 0.00052198		 0.00098550		 0.00026912	
O		11.79199808		10.60759529		4.21599970		 0.00052198		 0.00098550		-0.00026912	
O		9.57199952		10.25239455		1.05399946		-0.00052198		-0.00098550		 0.00026912	
O		3.41667859		15.72099167		0.26350080		 0.00021676		-0.00059290		 0.00043959	
O		17.94731901		5.13899817		5.00650023		-0.00021676		 0.00059290		-0.00043959	
O		8.69731940		3.65899913		2.89849944		-0.00021676		 0.00059290		 0.00043959	
O		12.66667820		17.20099071		2.37149971		 0.00021676		-0.00059290		-0.00043959	
O		18.63467795		9.43499574		5.00650023		 0.00038412		-0.00060964		 0.00012703	
O		2.72931965		11.42499410		0.26350080		-0.00038412		 0.00060964		-0.00012703	
O		11.97931926		12.90499313		2.37149971		-0.00038412		 0.00060964		 0.00012703	
O		9.38467834		7.95499671		2.89849944		 0.00038412		-0.00060964		-0.00012703	
O		3.41667859		15.72099167		2.84580078		 0.00018986		-0.00012046		-0.00013096	
O		17.94731901		5.13899817		2.42420025		-0.00018986		 0.00012046		 0.00013096	
O		8.69731940		3.65899913		0.21080027		-0.00018986		 0.00012046		-0.00013096	
O		12.66667820		17.20099071		5.05920077		 0.00018986		-0.00012046		 0.00013096	
O		18.63467795		9.43499574		2.42420025		 0.00007657		 0.00032790		 0.00009504	
O		2.72931965		11.42499410		2.84580078		-0.00007657		-0.00032790		-0.00009504	
O		11.97931926		12.90499313		5.05920077		-0.00007657		-0.00032790		 0.00009504	
O		9.38467834		7.95499671		0.21080027		 0.00007657		 0.00032790		-0.00009504	
O		4.03052020		3.78439826		0.26350080		-0.00035038		 0.00094256		 0.00111835	
O		17.33347928		17.07559158		5.00650023		 0.00035038		-0.00094256		-0.00111835	
O		8.08347967		15.59559254		2.89849944		 0.00035038		-0.00094256		 0.00111835	
O		13.28051981		5.26439730		2.37149971		-0.00035038		 0.00094256		-0.00111835	
O		16.93251943		14.56959299		5.00650023		 0.00061986		-0.00104254		-0.00015828	
O		4.43147817		6.29039685		0.26350080		-0.00061986		 0.00104254		 0.00015828	
O		13.68147966		7.77039776		2.37149971		-0.00061986		 0.00104254		-0.00015828	
O		7.68251982		13.08959208		2.89849944		 0.00061986		-0.00104254		 0.00015828	
O		3.71548045		1.81539844		2.95119998		 0.00004373		 0.00022750		 0.00006819	
O		17.64851903		19.04459140		2.31879918		-0.00004373		-0.00022750		-0.00006819	
O		8.39851942		17.56459049		0.31619946		-0.00004373		-0.00022750		 0.00006819	
O		12.96548006		3.29539935		4.95379970		 0.00004373		 0.00022750		-0.00006819	
O		16.61747968		12.60059317		2.31879918		-0.00074222		 0.00142923		 0.00013996	
O		4.74651979		8.25939667		2.95119998		 0.00074222		-0.00142923		-0.00013996	
O		13.99651940		9.73939571		4.95379970		 0.00074222		-0.00142923		 0.00013996	
O		7.36747820		11.12059413		0.31619946		-0.00074222		 0.00142923		-0.00013996	
O		3.51499959		0.56240008		0.26350080		-0.00151846		-0.00017098		-0.00070663	
O		14.98499963		2.39759987		5.00650023		 0.00151846		 0.00017098		 0.00070663	
O		5.73500002		0.91760083		2.89849944		 0.00151846		 0.00017098		-0.00070663	
O		12.76499920		2.04239912		2.37149971		-0.00151846		-0.00017098		 0.00070663	
O		16.41699882		11.34759481		5.00650023		 0.00085654		 0.00005864		 0.00053461	
O		4.94699878		9.51239503		0.26350080		-0.00085654		-0.00005864		-0.00053461	
O		14.19699839		10.99239407		2.37149971		-0.00085654		-0.00005864		 0.00053461	
O		7.16699921		9.86759577		2.89849944		 0.00085654		 0.00005864		-0.00053461	
O		5.66299838		13.98739344		2.37149971		 0.00110387		 0.00002198		-0.00005910	
O		15.70099923		6.87259828		2.89849944		-0.00110387		-0.00002198		 0.00005910	
O		6.45099962		5.39259736		5.00650023		-0.00110387		-0.00002198		-0.00005910	
O		14.91299799		15.46739248		0.26350080		 0.00110387		 0.00002198		 0.00005910	
O		4.23099919		5.03739849		2.89849944		-0.00093481		-0.00026222		 0.00170546	
O		17.13299842		15.82259322		2.37149971		 0.00093481		 0.00026222		-0.00170546	
O		7.88299881		14.34259231		0.26350080		 0.00093481		 0.00026222		 0.00170546	
O		13.48100067		6.51739753		5.00650023		-0.00093481		-0.00026222		-0.00170546	
O		6.19167866		16.16499026		1.58099919		 0.00006610		-0.00023497		-0.00004096	
O		15.17231894		4.69499958		3.68899997		-0.00006610		 0.00023497		 0.00004096	
O		5.92231933		3.21499867		4.21599970		-0.00006610		 0.00023497		-0.00004096	
O		15.44167827		17.64499117		1.05399946		 0.00006610		-0.00023497		 0.00004096	
O		15.85967975		8.99099528		3.68899997		-0.00091684		 0.00081130		-0.00045110	
O		5.50431972		11.86899456		1.58099919		 0.00091684		-0.00081130		 0.00045110	
O		14.75431934		13.34899360		1.05399946		 0.00091684		-0.00081130		-0.00045110	
O		6.60968014		7.51099624		4.21599970		-0.00091684		 0.00081130		 0.00045110	
O		6.19167866		16.16499026		4.21599970		-0.00031428		-0.00040323		 0.00066349	
O		15.17231894		4.69499958		1.05399946		 0.00031428		 0.00040323		-0.00066349	
O		5.92231933		3.21499867		1.58099919		 0.00031428		 0.00040323		 0.00066349	
O		15.44167827		17.64499117		3.68899997		-0.00031428		-0.00040323		-0.00066349	
O		15.85967975		8.99099528		1.05399946		 0.00024992		-0.00044131		 0.00039503	
O		5.50431972		11.86899456		4.21599970		-0.00024992		 0.00044131		-0.00039503	
O		14.75431934		13.34899360		3.68899997		-0.00024992		 0.00044131		 0.00039503	
O		6.60968014		7.51099624		1.58099919		 0.00024992		-0.00044131		-0.00039503	
H		17.94500146		2.87120023		0.79050053		 0.00018595		-0.00056818		-0.00003469	
H		0.55499964		0.08879972		4.47950050		-0.00018595		 0.00056818		 0.00003469	
H		9.80499925		1.56880063		3.42549917		-0.00018595		 0.00056818		-0.00003469	
H		8.69500184		1.39119932		1.84449999		 0.00018595		-0.00056818		 0.00003469	
H		1.98699883		9.03879466		4.47950050		-0.00066301		 0.00067450		 0.00016054	
H		19.37700065		11.82119518		0.79050053		 0.00066301		-0.00067450		-0.00016054	
H		10.12699916		10.34119427		1.84449999		 0.00066301		-0.00067450		 0.00016054	
H		11.23699844		10.51879557		3.42549917		-0.00066301		 0.00067450		-0.00016054	
