# total energy = -92497.0497381 eV	

CRYSTAL	
PRIMVEC	
		18.49999462		-1.47999586		0.00000000	
		-1.43200201		17.89999731		0.00000000	
		0.00000000		0.00000000		5.27000644	
PRIMCOORD
   164 1	
Mg		2.16156044		2.85059878		2.00259985		 0.00015260		 0.00029963		 0.00006085	
Mg		14.90644145		13.56939153		3.26739917		-0.00015260		-0.00029963		-0.00006085	
Mg		5.65644042		14.30939132		4.63759936		-0.00015260		-0.00029963		 0.00006085	
Mg		11.41155961		2.11059714		0.63239966		 0.00015260		 0.00029963		-0.00006085	
Mg		15.13556103		10.70539308		3.26739917		-0.00012785		 0.00003788		 0.00051433	
Mg		1.93244086		5.71459538		2.00259985		 0.00012785		-0.00003788		-0.00051433	
Mg		11.18244003		4.97459560		0.63239966		 0.00012785		-0.00003788		 0.00051433	
Mg		5.88556186		11.44539472		4.63759936		-0.00012785		 0.00003788		-0.00051433	
Mg		2.29044044		1.23959977		4.58490078		-0.00008266		 0.00001005		-0.00001390	
Mg		14.77756145		15.18039055		0.68510010		 0.00008266		-0.00001005		 0.00001390	
Mg		5.52756043		15.92039033		1.94989941		 0.00008266		-0.00001005		-0.00001390	
Mg		11.54043961		0.49959813		3.32009961		-0.00008266		 0.00001005		 0.00001390	
Mg		15.26444102		9.09439406		0.68510010		 0.00002630		 0.00025898		 0.00000716	
Mg		1.80356087		7.32559625		4.58490078		-0.00002630		-0.00025898		-0.00000716	
Mg		11.05356004		6.58559647		3.32009961		-0.00002630		-0.00025898		 0.00000716	
Mg		6.01444186		9.83439385		1.94989941		 0.00002630		 0.00025898		-0.00000716	
Mg		1.00164048		17.34958992		2.00259985		 0.00020559		 0.00003894		-0.00035744	
Mg		16.06635955		-0.92959961		3.26739917		-0.00020559		-0.00003894		 0.00035744	
Mg		6.81636038		-0.18959982		4.63759936		-0.00020559		-0.00003894		-0.00035744	
Mg		10.25164151		16.60959013		0.63239966		 0.00020559		 0.00003894		 0.00035744	
Mg		15.40763937		7.30439433		3.26739917		-0.00019271		-0.00011932		 0.00045848	
Mg		1.66036067		9.11559413		2.00259985		 0.00019271		 0.00011932		-0.00045848	
Mg		10.91035984		8.37559434		0.63239966		 0.00019271		 0.00011932		 0.00045848	
Mg		6.15764020		8.04439412		4.63759936		-0.00019271		-0.00011932		-0.00045848	
Mg		2.04700065		4.28259708		4.58490078		 0.00003447		 0.00012501		-0.00051898	
Mg		15.02100124		12.13739323		0.68510010		-0.00003447		-0.00012501		 0.00051898	
Mg		5.77100021		12.87739302		1.94989941		-0.00003447		-0.00012501		-0.00051898	
Mg		11.29699982		3.54259730		3.32009961		 0.00003447		 0.00012501		 0.00051898	
Si		-0.61923940		14.63359105		1.52829964		-0.00001044		-0.00012296		-0.00020984	
Si		17.68724129		1.78639741		3.74169938		 0.00001044		 0.00012296		 0.00020984	
Si		8.43724027		2.52639719		4.16329915		 0.00001044		 0.00012296		-0.00020984	
Si		8.63075977		13.89359126		1.10669987		-0.00001044		-0.00012296		 0.00020984	
Si		17.48676027		4.29239629		3.74169938		 0.00007673		 0.00013546		-0.00006372	
Si		-0.41875837		12.12759217		1.52829964		-0.00007673		-0.00013546		 0.00006372	
Si		8.83124079		11.38759238		1.10669987		-0.00007673		-0.00013546		-0.00006372	
Si		8.23675924		5.03239607		4.16329915		 0.00007673		 0.00013546		 0.00006372	
Si		-0.76243960		16.42359078		4.16329915		-0.00002687		-0.00022519		 0.00003804	
Si		17.83044149		-0.00360047		1.10669987		 0.00002687		 0.00022519		-0.00003804	
Si		8.58044047		0.73639932		1.52829964		 0.00002687		 0.00022519		 0.00003804	
Si		8.48755957		15.68359099		3.74169938		-0.00002687		-0.00022519		-0.00003804	
Si		17.34356007		6.08239602		1.10669987		 0.00019924		-0.00041979		 0.00019954	
Si		-0.27556003		10.33759429		4.16329915		-0.00019924		 0.00041979		-0.00019954	
Si		8.97443914		9.59759451		3.74169938		-0.00019924		 0.00041979		 0.00019954	
Si		8.09355904		6.82239580		1.52829964		 0.00019924		-0.00041979		-0.00019954	
Si		2.75256031		16.14239064		0.21079989		-0.00033733		-0.00028076		 0.00001215	
Si		14.31543973		0.27759967		5.05919913		 0.00033733		 0.00028076		-0.00001215	
Si		5.06544056		1.01759946		2.84579940		 0.00033733		 0.00028076		 0.00001215	
Si		12.00256133		15.40239085		2.42419962		-0.00033733		-0.00028076		-0.00001215	
Si		13.82856016		6.36359616		5.05919913		 0.00029355		 0.00006836		-0.00036533	
Si		3.23943988		10.05639415		0.21079989		-0.00029355		-0.00006836		 0.00036533	
Si		12.48944090		9.31639437		2.42419962		-0.00029355		-0.00006836		-0.00036533	
Si		4.57855913		7.10359595		2.84579940		 0.00029355		 0.00006836		 0.00036533	
Si		2.89576051		14.35239276		2.84579940		 0.00023048		 0.00001643		 0.00017742	
Si		14.17223953		2.06759755		2.42419962		-0.00023048		-0.00001643		-0.00017742	
Si		4.92224036		2.80759733		0.21079989		-0.00023048		-0.00001643		 0.00017742	
Si		12.14576153		13.61239112		5.05919913		 0.00023048		 0.00001643		-0.00017742	
Si		13.97176036		4.57359643		2.42419962		-0.00027379		-0.00010345		-0.00032167	
Si		3.09624153		11.84639203		2.84579940		 0.00027379		 0.00010345		 0.00032167	
Si		12.34624070		11.10639224		5.05919913		 0.00027379		 0.00010345		-0.00032167	
Si		4.72175934		5.31359621		0.21079989		-0.00027379		-0.00010345		 0.00032167	
O		1.00976009		1.16419969		1.05399943		 0.00004020		 0.00035466		 0.00000776	
O		16.05823994		15.25579062		4.21599959		-0.00004020		-0.00035466		-0.00000776	
O		6.80824077		15.99579041		3.68900080		-0.00004020		-0.00035466		 0.00000776	
O		10.25975926		0.42419990		1.58100008		 0.00004020		 0.00035466		-0.00000776	
O		16.57375993		8.81179456		4.21599959		-0.00032442		 0.00065033		 0.00048752	
O		0.49424011		7.60819575		1.05399943		 0.00032442		-0.00065033		-0.00048752	
O		9.74423928		6.86819596		1.58100008		 0.00032442		-0.00065033		 0.00048752	
O		7.32376076		9.55179435		3.68900080		-0.00032442		 0.00065033		-0.00048752	
O		0.85223969		3.13319828		3.68900080		-0.00003174		 0.00025015		 0.00043877	
O		16.21576035		13.28679203		1.58100008		 0.00003174		-0.00025015		-0.00043877	
O		6.96576118		14.02679182		1.05399943		 0.00003174		-0.00025015		 0.00043877	
O		10.10224071		2.39319849		4.21599959		-0.00003174		 0.00025015		-0.00043877	
O		16.41623952		10.78079315		1.58100008		-0.00002598		-0.00010239		 0.00039708	
O		0.65176052		5.63919716		3.68900080		 0.00002598		 0.00010239		-0.00039708	
O		9.90175969		4.89919737		4.21599959		 0.00002598		 0.00010239		 0.00039708	
O		7.16624035		11.52079294		1.05399943		-0.00002598		-0.00010239		-0.00039708	
O		0.03600095		13.33619266		1.05399943		-0.00026698		 0.00005990		-0.00032945	
O		17.03199908		3.08379765		4.21599959		 0.00026698		-0.00005990		 0.00032945	
O		7.78199992		3.82379744		3.68900080		 0.00026698		-0.00005990		-0.00032945	
O		9.28600012		12.59619288		1.58100008		-0.00026698		 0.00005990		 0.00032945	
O		0.75200010		4.38619772		1.05399943		 0.00004771		 0.00021196		 0.00003515	
O		16.31599993		12.03379259		4.21599959		-0.00004771		-0.00021196		-0.00003515	
O		7.06600077		12.77379238		3.68900080		-0.00004771		-0.00021196		 0.00003515	
O		10.00199927		3.64619793		1.58100008		 0.00004771		 0.00021196		-0.00003515	
O		1.10999968		-0.08879975		3.68900080		 0.00022837		 0.00008919		 0.00021764	
O		17.39000051		-1.39119982		1.58100008		-0.00022837		-0.00008919		-0.00021764	
O		8.13999949		-0.65120003		1.05399943		-0.00022837		-0.00008919		 0.00021764	
O		10.36000070		-0.82879954		4.21599959		 0.00022837		 0.00008919		-0.00021764	
O		16.67399951		7.55879512		1.58100008		-0.00017646		-0.00068016		-0.00005512	
O		0.39400053		8.86119519		3.68900080		 0.00017646		 0.00068016		 0.00005512	
O		9.64399970		8.12119541		4.21599959		 0.00017646		 0.00068016		-0.00005512	
O		7.42400034		8.29879491		1.05399943		-0.00017646		-0.00068016		 0.00005512	
O		-0.32083868		15.49899100		0.26350032		 0.00026892		-0.00020950		 0.00015329	
O		17.38884057		0.92099932		5.00650055		-0.00026892		 0.00020950		-0.00015329	
O		8.13883955		1.66099910		2.89849983		-0.00026892		 0.00020950		 0.00015329	
O		8.92916049		14.75899121		2.37149919		 0.00026892		-0.00020950		-0.00015329	
O		17.04515935		5.21699607		5.00650055		 0.00020372		-0.00043108		 0.00035658	
O		0.02284069		11.20299424		0.26350032		-0.00020372		 0.00043108		-0.00035658	
O		9.27284172		10.46299446		2.37149919		-0.00020372		 0.00043108		 0.00035658	
O		7.79516018		5.95699586		2.89849983		 0.00020372		-0.00043108		-0.00035658	
O		-0.32083868		15.49899100		2.84579940		-0.00055767		-0.00028479		-0.00005090	
O		17.38884057		0.92099932		2.42419962		 0.00055767		 0.00028479		 0.00005090	
O		8.13883955		1.66099910		0.21079989		 0.00055767		 0.00028479		-0.00005090	
O		8.92916049		14.75899121		5.05919913		-0.00055767		-0.00028479		 0.00005090	
O		17.04515935		5.21699607		2.42419962		 0.00000694		-0.00029644		 0.00011639	
O		0.02284069		11.20299424		2.84579940		-0.00000694		 0.00029644		-0.00011639	
O		9.27284172		10.46299446		5.05919913		-0.00000694		 0.00029644		 0.00011639	
O		7.79516018		5.95699586		0.21079989		 0.00000694		-0.00029644		-0.00011639	
O		3.25723992		2.94079789		0.26350032		-0.00007367		-0.00027144		-0.00027471	
O		13.81076012		13.47919242		5.00650055		 0.00007367		 0.00027144		 0.00027471	
O		4.56076095		14.21919221		2.89849983		 0.00007367		 0.00027144		-0.00027471	
O		12.50723908		2.20079810		2.37149919		-0.00007367		-0.00027144		 0.00027471	
O		14.01124114		10.97319354		5.00650055		 0.00036060		-0.00030495		-0.00031072	
O		3.05676075		5.44679677		0.26350032		-0.00036060		 0.00030495		 0.00031072	
O		12.30675992		4.70679699		2.37149919		-0.00036060		 0.00030495		-0.00031072	
O		4.76124012		11.71319333		2.89849983		 0.00036060		-0.00030495		 0.00031072	
O		3.41476032		0.97179930		2.95120027		 0.00039664		 0.00030682		-0.00024617	
O		13.65324157		15.44819101		2.31880061		-0.00039664		-0.00030682		 0.00024617	
O		4.40324055		16.18819080		0.31620076		-0.00039664		-0.00030682		-0.00024617	
O		12.66475949		0.23179951		4.95380012		 0.00039664		 0.00030682		 0.00024617	
O		14.16876155		9.00419310		2.31880061		-0.00011517		-0.00042638		 0.00042996	
O		2.89924034		7.41579536		2.95120027		 0.00011517		 0.00042638		-0.00042996	
O		12.14923951		6.67579558		4.95380012		 0.00011517		 0.00042638		 0.00042996	
O		4.91876053		9.74419474		0.31620076		-0.00011517		-0.00042638		-0.00042996	
O		3.51499991		-0.28120014		0.26350032		-0.00004362		 0.00004547		-0.00028096	
O		14.98500029		-1.19879943		5.00650055		 0.00004362		-0.00004547		 0.00028096	
O		5.73499926		-0.45879964		2.89849983		 0.00004362		-0.00004547		-0.00028096	
O		12.76499907		-1.02119993		2.37149919		-0.00004362		 0.00004547		 0.00028096	
O		14.26899928		7.75119551		5.00650055		 0.00034992		 0.00004189		-0.00036693	
O		2.79900076		8.66879480		0.26350032		-0.00034992		-0.00004189		 0.00036693	
O		12.04899992		7.92879502		2.37149919		-0.00034992		-0.00004189		-0.00036693	
O		5.01900011		8.49119530		2.89849983		 0.00034992		 0.00004189		 0.00036693	
O		2.44100118		13.14379227		2.37149919		-0.00068258		-0.00031026		-0.00024018	
O		14.62700071		3.27619804		2.89849983		 0.00068258		 0.00031026		 0.00024018	
O		5.37699969		4.01619783		5.00650055		 0.00068258		 0.00031026		-0.00024018	
O		11.69100035		12.40379249		0.26350032		-0.00068258		-0.00031026		 0.00024018	
O		3.15700033		4.19379733		2.89849983		 0.00005165		-0.00018519		 0.00042450	
O		13.91100156		12.22619298		2.37149919		-0.00005165		 0.00018519		-0.00042450	
O		4.66100054		12.96619277		0.26350032		-0.00005165		 0.00018519		 0.00042450	
O		12.40699950		3.45379754		5.00650055		 0.00005165		-0.00018519		-0.00042450	
O		2.45416144		15.27699069		1.58100008		 0.00007340		-0.00007463		 0.00030309	
O		14.61384045		1.14299962		3.68900080		-0.00007340		 0.00007463		-0.00030309	
O		5.36383943		1.88299941		4.21599959		-0.00007340		 0.00007463		 0.00030309	
O		11.70416061		14.53699091		1.05399943		 0.00007340		-0.00007463		-0.00030309	
O		14.27016108		5.43899638		3.68900080		 0.00049726		-0.00035032		-0.00027611	
O		2.79784081		10.98099394		1.58100008		-0.00049726		 0.00035032		 0.00027611	
O		12.04783998		10.24099415		1.05399943		-0.00049726		 0.00035032		-0.00027611	
O		5.02016006		6.17899616		4.21599959		 0.00049726		-0.00035032		 0.00027611	
O		2.45416144		15.27699069		4.21599959		-0.00002561		-0.00009948		-0.00018069	
O		14.61384045		1.14299962		1.05399943		 0.00002561		 0.00009948		 0.00018069	
O		5.36383943		1.88299941		1.58100008		 0.00002561		 0.00009948		-0.00018069	
O		11.70416061		14.53699091		3.68900080		-0.00002561		-0.00009948		 0.00018069	
O		14.27016108		5.43899638		1.05399943		-0.00054195		 0.00005104		-0.00018656	
O		2.79784081		10.98099394		4.21599959		 0.00054195		-0.00005104		 0.00018656	
O		12.04783998		10.24099415		3.68900080		 0.00054195		-0.00005104		-0.00018656	
O		5.02016006		6.17899616		1.58100008		-0.00054195		 0.00005104		 0.00018656	
H		17.94500128		-1.43560062		0.79049911		 0.00005774		-0.00019265		 0.00002055	
H		0.55499891		-0.04440080		4.47949991		-0.00005774		 0.00019265		-0.00002055	
H		9.80499808		-0.78440059		3.42550048		-0.00005774		 0.00019265		 0.00002055	
H		8.69500026		-0.69560084		1.84450040		 0.00005774		-0.00019265		-0.00002055	
H		-0.16100024		8.90559414		4.47949991		 0.00032850		 0.00003391		 0.00003101	
H		17.22900028		7.51439432		0.79049911		-0.00032850		-0.00003391		-0.00003101	
H		7.97900111		8.25439410		1.84450040		-0.00032850		-0.00003391		 0.00003101	
H		9.08900079		8.16559435		3.42550048		 0.00032850		 0.00003391		-0.00003101	
