# total energy = -34531.3568492 eV	

CRYSTAL	
PRIMVEC	
		9.34399986		0.00000000		0.00000000	
		0.00000000		5.57339691		0.00000000	
		-0.48050585		0.00000000		13.28130911	
PRIMCOORD
   56 1	
Si		1.25702494		2.66854357		4.82257662		 0.00007815		 0.00004680		-0.00076600	
Si		7.60647094		2.90485613		8.45873342		-0.00007815		-0.00004680		 0.00076600	
Si		7.84672293		2.66854357		1.81807887		-0.00007966		 0.00009024		 0.00088779	
Si		1.01677295		2.90485613		11.46323210		 0.00007966		-0.00009024		-0.00088779	
Si		5.92902487		5.45524390		4.82257662		 0.00007805		 0.00004679		-0.00076584	
Si		2.93447101		0.11815581		8.45873342		-0.00007805		-0.00004679		 0.00076584	
Si		3.17472300		5.45524390		1.81807887		-0.00007992		 0.00009031		 0.00088820	
Si		5.68877288		0.11815581		11.46323210		 0.00007992		-0.00009031		-0.00088820	
Mg		4.43174794		2.78670032		6.64065455		0.00000000		0.00000000		0.00000000	
Mg		4.67199993		2.78670032		0.00000000		0.00000000		0.00000000		0.00000000	
Mg		-0.24025199		0.00000000		6.64065455		0.00000000		0.00000000		0.00000000	
Mg		0.00000000		0.00000000		0.00000000		0.00000000		0.00000000		0.00000000	
O		0.46208042		1.19103574		4.97119480		 0.00005329		-0.00006580		 0.00054428	
O		8.40141453		4.38236490		8.31011617		-0.00005329		 0.00006580		-0.00054428	
O		8.64166745		1.19103574		1.66946068		-0.00004635		-0.00008064		-0.00055975	
O		0.22182843		4.38236490		11.61184936		 0.00004635		 0.00008064		 0.00055975	
O		5.13408034		3.97773607		4.97119480		 0.00005338		-0.00006568		 0.00054430	
O		3.72941553		1.59566364		8.31011617		-0.00005338		 0.00006568		-0.00054430	
O		3.96966752		3.97773607		1.66946068		-0.00004625		-0.00008046		-0.00055990	
O		4.89382835		1.59566364		11.61184936		 0.00004625		 0.00008046		 0.00055990	
O		2.66276525		2.55930474		5.63791629		-0.00044928		-0.00066194		-0.00053525	
O		6.20072970		3.01409497		7.64339375		 0.00044928		 0.00066194		 0.00053525	
O		6.44098262		2.55930474		1.00273920		 0.00042353		-0.00066680		 0.00051197	
O		2.42251326		3.01409497		12.27857178		-0.00042353		 0.00066680		-0.00051197	
O		7.33476517		5.34600600		5.63791629		-0.00044928		-0.00066197		-0.00053544	
O		1.52873070		0.22739465		7.64339375		 0.00044928		 0.00066197		 0.00053544	
O		1.76898269		5.34600600		1.00273920		 0.00042372		-0.00066671		 0.00051183	
O		7.09451318		0.22739465		12.27857178		-0.00042372		 0.00066671		-0.00051183	
O		0.40556510		3.84230226		5.65518213		 0.00086091		-0.00012604		 0.00014444	
O		8.45793078		1.73109838		7.62612884		-0.00086091		 0.00012604		-0.00014444	
O		8.69818277		3.84230226		0.98547335		-0.00085340		-0.00011644		-0.00016179	
O		0.16531218		1.73109838		12.29583669		 0.00085340		 0.00011644		 0.00016179	
O		5.07756409		1.05560194		5.65518213		 0.00086082		-0.00012599		 0.00014448	
O		3.78593085		4.51779777		7.62612884		-0.00086082		 0.00012599		-0.00014448	
O		4.02618284		1.05560194		0.98547335		-0.00085342		-0.00011669		-0.00016181	
O		4.83731210		4.51779777		12.29583669		 0.00085342		 0.00011669		 0.00016181	
O		1.45510185		3.26768458		3.35087515		 0.00001015		 0.00093433		-0.00055577	
O		7.40839402		2.30571606		9.93043583		-0.00001015		-0.00093433		 0.00055577	
O		7.64864601		3.26768458		3.28978127		 0.00000076		 0.00090555		 0.00046119	
O		1.21484893		2.30571606		9.99152970		-0.00000076		-0.00090555		-0.00046119	
O		6.12710085		0.48098520		3.35087515		 0.00001023		 0.00093425		-0.00055598	
O		2.73639410		5.09241638		9.93043583		-0.00001023		-0.00093425		 0.00055598	
O		2.97664609		0.48098520		3.28978127		 0.00000087		 0.00090551		 0.00046113	
O		5.88684886		5.09241638		9.99152970		-0.00000087		-0.00090551		-0.00046113	
Ca		1.59139157		2.67523201		1.18761491		-0.00065452		-0.00031890		 0.00059310	
Ca		7.27210244		2.89816770		12.09369607		 0.00065452		 0.00031890		-0.00059310	
Ca		7.51235443		2.67523201		5.45304058		 0.00065388		-0.00031799		-0.00057621	
Ca		1.35113958		2.89816770		7.82826946		-0.00065388		 0.00031799		 0.00057621	
Ca		6.26339149		5.46193233		1.18761491		-0.00065441		-0.00031893		 0.00059300	
Ca		2.60010251		0.11146831		12.09369607		 0.00065441		 0.00031893		-0.00059300	
Ca		2.84035450		5.46193233		5.45304058		 0.00065394		-0.00031797		-0.00057637	
Ca		6.02313950		0.11146831		7.82826946		-0.00065394		 0.00031797		 0.00057637	
Ca		-0.12012646		5.17824569		3.32032774		-0.00000053		-0.00025559		 0.00000991	
Ca		-0.36037845		0.39515402		9.96098323		 0.00000053		 0.00025559		-0.00000991	
Ca		4.55187347		2.39154631		3.32032774		-0.00000065		-0.00025566		 0.00000996	
Ca		4.31162148		3.18185434		9.96098323		 0.00000065		 0.00025566		-0.00000996	
