# total energy = -20636.1430314 eV	

CRYSTAL	
PRIMVEC	
		10.05000003		0.00000000		0.00000000	
		0.00000000		5.74999697		0.23000430	
		0.00000000		0.19479915		4.86999886	
PRIMCOORD
   28 1	
Si		3.34665001		0.17506698		4.37666949		 0.00013542		 0.00045765		-0.00013021	
Si		6.70335002		0.01973318		0.49333139		-0.00013542		-0.00045765		 0.00013021	
Si		8.37165002		3.05006747		4.49166862		 0.00014779		 0.00045890		-0.00013371	
Si		1.67835000		2.89473266		0.60833052		-0.00014779		-0.00045890		 0.00013371	
Mg		0.00000000		0.00000000		0.00000000		0.00000000		0.00000000		0.00000000	
Mg		5.02500001		2.87500049		0.11500014		0.00000000		0.00000000		0.00000000	
Mg		5.02500001		0.09739958		2.43500044		0.00000000		0.00000000		0.00000000	
Mg		0.00000000		2.97240007		2.54999957		0.00000000		0.00000000		0.00000000	
Mg		2.51250001		1.53490032		2.49250051		-0.00000765		 0.00000113		 0.00000556	
Mg		7.53750002		4.40989981		2.60749964		 0.00000765		-0.00000113		-0.00000556	
Mg		7.53750002		1.53490032		2.49250051		 0.00001040		-0.00000504		-0.00000605	
Mg		2.51250001		4.40989981		2.60749964		-0.00001040		 0.00000504		 0.00000605	
O		8.23497002		0.04324616		1.08113981		-0.00031063		 0.00028003		-0.00003622	
O		1.81503001		0.15155400		3.78886006		 0.00031063		-0.00028003		 0.00003622	
O		3.20997001		2.91824564		1.19613995		-0.00031968		 0.00028297		-0.00002753	
O		6.84003002		3.02655449		3.90386020		 0.00031968		-0.00028297		 0.00002753	
O		3.35770501		0.04583604		1.14591105		 0.00005544		-0.00035355		 0.00006724	
O		6.69229502		0.14896412		3.72408882		-0.00005544		 0.00035355		-0.00006724	
O		8.38270502		2.92083553		1.26091119		 0.00006526		-0.00035020		 0.00005886	
O		1.66729500		3.02396360		3.83908896		-0.00006526		 0.00035020		-0.00005886	
O		0.91254000		1.59811281		1.15938006		-0.00018212		-0.00003783		 0.00010330	
O		9.13746003		4.34668632		3.94062009		 0.00018212		 0.00003783		-0.00010330	
O		9.13746003		1.70513728		3.83495841		-0.00009300		 0.00015414		 0.00019671	
O		0.91254000		4.23966286		1.26504174		 0.00009300		-0.00015414		-0.00019671	
O		5.93754002		4.47311431		1.27438020		-0.00017369		-0.00003825		 0.00009534	
O		4.11246001		1.47168683		3.82561995		 0.00017369		 0.00003825		-0.00009534	
O		4.11246001		4.58013676		3.94995754		-0.00010720		 0.00015250		 0.00019813	
O		5.93754002		1.36466337		1.15004160		 0.00010720		-0.00015250		-0.00019813	
