# total energy = -20632.0951754 eV	

CRYSTAL	
PRIMVEC	
		10.05000003		0.00000000		0.00000000	
		0.00000000		5.74999697		-0.69000285	
		0.00000000		-0.58439745		4.86999886	
PRIMCOORD
   28 1	
Si		3.34665001		-0.52519994		4.37666949		 0.00017904		 0.00034785		-0.00001704	
Si		6.70335002		-0.05919953		0.49333139		-0.00017904		-0.00034785		 0.00001704	
Si		8.37165002		2.34979955		4.03166907		 0.00017209		 0.00033509		 0.00001593	
Si		1.67835000		2.81579996		0.14833097		-0.00017209		-0.00033509		-0.00001593	
Mg		0.00000000		0.00000000		0.00000000		0.00000000		0.00000000		0.00000000	
Mg		5.02500001		2.87500049		-0.34500042		0.00000000		0.00000000		0.00000000	
Mg		5.02500001		-0.29219973		2.43500044		0.00000000		0.00000000		0.00000000	
Mg		0.00000000		2.58279976		2.09000002		0.00000000		0.00000000		0.00000000	
Mg		2.51250001		1.14530001		2.26250023		-0.00001101		-0.00001125		 0.00000194	
Mg		7.53750002		4.02030051		1.91749981		 0.00001101		 0.00001125		-0.00000194	
Mg		7.53750002		1.14530001		2.26250023		-0.00000835		 0.00001314		-0.00001999	
Mg		2.51250001		4.02030051		1.91749981		 0.00000835		-0.00001314		 0.00001999	
O		8.23497002		-0.12973746		1.08113981		 0.00021274		 0.00024279		-0.00027770	
O		1.81503001		-0.45466301		3.78886006		-0.00021274		-0.00024279		 0.00027770	
O		3.20997001		2.74526303		0.73614039		 0.00022422		 0.00022440		-0.00026468	
O		6.84003002		2.42033749		3.44385964		-0.00022422		-0.00022440		 0.00026468	
O		3.35770501		-0.13750913		1.14591105		-0.00025747		-0.00008827		-0.00032260	
O		6.69229502		-0.44689134		3.72408882		 0.00025747		 0.00008827		 0.00032260	
O		8.38270502		2.73749137		0.80091063		-0.00025480		-0.00007376		-0.00035459	
O		1.66729500		2.42810915		3.37908940		 0.00025480		 0.00007376		 0.00035459	
O		0.91254000		1.42256042		0.91070387		-0.00036587		 0.00003326		 0.00060228	
O		9.13746003		3.74304010		3.26929616		 0.00036587		-0.00003326		-0.00060228	
O		9.13746003		1.10149005		3.58628221		-0.00091895		 0.00053902		-0.00040787	
O		0.91254000		4.06411047		0.59371782		 0.00091895		-0.00053902		 0.00040787	
O		5.93754002		4.29755991		0.56570445		-0.00035888		 0.00003237		 0.00060626	
O		4.11246001		0.86803961		3.61429558		 0.00035888		-0.00003237		-0.00060626	
O		4.11246001		3.97649055		3.24128179		-0.00090523		 0.00055032		-0.00039167	
O		5.93754002		1.18910997		0.93871824		 0.00090523		-0.00055032		 0.00039167	
