# total energy = -18534.9043729 eV	

CRYSTAL	
PRIMVEC	
		4.68600010		0.00000000		0.00000000	
		-2.34300005		4.05819324		0.00000000	
		0.00000000		0.00000000		13.95555029	
PRIMCOORD
   30 1	
O		1.42548123		0.13229703		3.37166095		 0.00014110		 0.00002280		-0.00004307	
O		0.91751882		3.92589809		10.58388934		-0.00014110		-0.00002280		 0.00004307	
O		3.85868725		1.16835385		3.37166095		-0.00009029		 0.00011079		-0.00004307	
O		-1.51568720		2.88984127		10.58388934		 0.00009029		-0.00011079		 0.00004307	
O		1.74483214		2.75754283		3.37166095		-0.00005081		-0.00013359		-0.00004307	
O		0.59816791		1.30065088		10.58388934		 0.00005081		 0.00013359		 0.00004307	
O		3.76848128		1.48502905		8.02351136		 0.00013610		 0.00000470		 0.00002166	
O		0.91751882		1.22043405		1.28018899		-0.00013204		 0.00001019		-0.00008150	
O		1.51568720		2.52108586		8.02351136		-0.00007211		 0.00011552		 0.00002166	
O		3.17031290		0.18437723		1.28018899		 0.00005720		-0.00011943		-0.00008150	
O		1.74483214		0.05208021		8.02351136		-0.00006399		-0.00012021		 0.00002166	
O		2.94116797		2.65338289		1.28018899		 0.00007483		 0.00010925		-0.00008150	
O		1.42548123		2.83776013		12.67536131		 0.00013204		-0.00001019		 0.00008150	
O		-1.42548123		2.57316607		5.93203893		-0.00013610		-0.00000470		-0.00002166	
O		-0.82731285		3.87381788		12.67536131		-0.00005720		 0.00011943		 0.00008150	
O		0.82731285		1.53710925		5.93203893		 0.00007211		-0.00011552		-0.00002166	
O		-0.59816791		1.40481222		12.67536131		-0.00007483		-0.00010925		 0.00008150	
O		0.59816791		4.00611491		5.93203893		 0.00006399		 0.00012021		-0.00002166	
Mg		0.00000000		0.00000000		5.00446020		0.00000000		0.00000000		 0.00032697	
Mg		0.00000000		0.00000000		8.95109009		0.00000000		0.00000000		-0.00032697	
Mg		2.34300005		1.35273202		9.65631108		0.00000000		0.00000000		 0.00031440	
Mg		2.34300005		1.35273202		13.60294050		0.00000000		0.00000000		-0.00034196	
Mg		0.00000000		2.70546310		0.35260979		0.00000000		-0.00000000		 0.00034196	
Mg		0.00000000		2.70546310		4.29924015		0.00000000		0.00000000		-0.00031440	
Si		0.00000000		0.00000000		2.19102089		0.00000000		0.00000000		 0.00008140	
Si		0.00000000		0.00000000		11.76452941		0.00000000		0.00000000		-0.00008140	
Si		2.34300005		1.35273202		6.84287223		0.00000000		0.00000000		-0.00008040	
Si		2.34300005		1.35273202		2.46082906		0.00000000		0.00000000		 0.00024427	
Si		0.00000000		2.70546310		11.49472217		0.00000000		-0.00000000		-0.00024427	
Si		0.00000000		2.70546310		7.11267900		-0.00000000		-0.00000000		 0.00008040	
