# total energy = -18532.6169914 eV	

CRYSTAL	
PRIMVEC	
		4.68600010		0.00000000		0.00000000	
		-2.34300005		4.05819324		0.00000000	
		0.00000000		0.00000000		12.62645071	
PRIMCOORD
   30 1	
O		1.42548123		0.13229703		3.05054999		 0.00041225		-0.00015044		 0.00012473	
O		0.91751882		3.92589809		9.57589932		-0.00041225		 0.00015044		-0.00012473	
O		3.85868725		1.16835385		3.05054999		-0.00007584		 0.00043225		 0.00012473	
O		-1.51568720		2.88984127		9.57589932		 0.00007584		-0.00043225		-0.00012473	
O		1.74483214		2.75754283		3.05054999		-0.00033641		-0.00028180		 0.00012473	
O		0.59816791		1.30065088		9.57589932		 0.00033641		 0.00028180		-0.00012473	
O		3.76848128		1.48502905		7.25936720		 0.00040906		-0.00015196		 0.00008711	
O		0.91751882		1.22043405		1.15826582		-0.00040750		 0.00015248		-0.00007059	
O		1.51568720		2.52108586		7.25936720		-0.00007292		 0.00043023		 0.00008711	
O		3.17031290		0.18437723		1.15826582		 0.00007170		-0.00042915		-0.00007059	
O		1.74483214		0.05208021		7.25936720		-0.00033614		-0.00027827		 0.00008711	
O		2.94116797		2.65338289		1.15826582		 0.00033580		 0.00027667		-0.00007059	
O		1.42548123		2.83776013		11.46818442		 0.00040750		-0.00015248		 0.00007059	
O		-1.42548123		2.57316607		5.36708304		-0.00040906		 0.00015196		-0.00008711	
O		-0.82731285		3.87381788		11.46818442		-0.00007170		 0.00042915		 0.00007059	
O		0.82731285		1.53710925		5.36708304		 0.00007292		-0.00043023		-0.00008711	
O		-0.59816791		1.40481222		11.46818442		-0.00033580		-0.00027667		 0.00007059	
O		0.59816791		4.00611491		5.36708304		 0.00033614		 0.00027827		-0.00008711	
Mg		0.00000000		0.00000000		4.52784526		0.00000000		0.00000000		 0.00045955	
Mg		0.00000000		0.00000000		8.09860499		0.00000000		0.00000000		-0.00045955	
Mg		2.34300005		1.35273202		8.73666201		0.00000000		-0.00000000		 0.00040588	
Mg		2.34300005		1.35273202		12.30742220		0.00000000		-0.00000000		-0.00047358	
Mg		0.00000000		2.70546310		0.31902804		0.00000000		0.00000000		 0.00047358	
Mg		0.00000000		2.70546310		3.88978824		0.00000000		-0.00000000		-0.00040588	
Si		0.00000000		0.00000000		1.98235283		0.00000000		0.00000000		 0.00050502	
Si		0.00000000		0.00000000		10.64409835		0.00000000		0.00000000		-0.00050502	
Si		2.34300005		1.35273202		6.19117005		0.00000000		-0.00000000		 0.00046075	
Si		2.34300005		1.35273202		2.22646392		0.00000000		-0.00000000		-0.00044818	
Si		0.00000000		2.70546310		10.39998726		0.00000000		0.00000000		 0.00044818	
Si		0.00000000		2.70546310		6.43528113		-0.00000000		0.00000000		-0.00046075	
