# total energy = -18534.9420829 eV	

CRYSTAL	
PRIMVEC	
		4.68600010		0.00000000		0.00000000	
		-2.34300005		4.05819324		0.00000000	
		0.00000000		0.00000000		13.62327540	
PRIMCOORD
   30 1	
O		1.42548123		0.13229703		3.29138321		 0.00011339		-0.00013468		 0.00017321	
O		0.91751882		3.92589809		10.33189219		-0.00011339		 0.00013468		-0.00017321	
O		3.85868725		1.16835385		3.29138321		 0.00005994		 0.00016554		 0.00017321	
O		-1.51568720		2.88984127		10.33189219		-0.00005994		-0.00016554		-0.00017321	
O		1.74483214		2.75754283		3.29138321		-0.00017334		-0.00003086		 0.00017321	
O		0.59816791		1.30065088		10.33189219		 0.00017334		 0.00003086		-0.00017321	
O		3.76848128		1.48502905		7.83247532		 0.00011357		-0.00013431		 0.00017164	
O		0.91751882		1.22043405		1.24970796		-0.00011351		 0.00013396		-0.00017016	
O		1.51568720		2.52108586		7.83247532		 0.00005954		 0.00016551		 0.00017164	
O		3.17031290		0.18437723		1.24970796		-0.00005926		-0.00016528		-0.00017016	
O		1.74483214		0.05208021		7.83247532		-0.00017311		-0.00003120		 0.00017164	
O		2.94116797		2.65338289		1.24970796		 0.00017277		 0.00003131		-0.00017016	
O		1.42548123		2.83776013		12.37356744		 0.00011351		-0.00013396		 0.00017016	
O		-1.42548123		2.57316607		5.79080007		-0.00011357		 0.00013431		-0.00017164	
O		-0.82731285		3.87381788		12.37356744		 0.00005926		 0.00016528		 0.00017016	
O		0.82731285		1.53710925		5.79080007		-0.00005954		-0.00016551		-0.00017164	
O		-0.59816791		1.40481222		12.37356744		-0.00017277		-0.00003131		 0.00017016	
O		0.59816791		4.00611491		5.79080007		 0.00017311		 0.00003120		-0.00017164	
Mg		0.00000000		0.00000000		4.88530600		0.00000000		0.00000000		 0.00014239	
Mg		0.00000000		0.00000000		8.73796940		0.00000000		0.00000000		-0.00014239	
Mg		2.34300005		1.35273202		9.42639811		0.00000000		-0.00000000		 0.00014492	
Mg		2.34300005		1.35273202		13.27906151		0.00000000		0.00000000		-0.00014201	
Mg		0.00000000		2.70546310		0.34421482		0.00000000		-0.00000000		 0.00014201	
Mg		0.00000000		2.70546310		4.19687729		0.00000000		-0.00000000		-0.00014492	
Si		0.00000000		0.00000000		2.13885399		0.00000000		0.00000000		 0.00002845	
Si		0.00000000		0.00000000		11.48442141		0.00000000		0.00000000		-0.00002845	
Si		2.34300005		1.35273202		6.67994610		-0.00000000		-0.00000000		 0.00003395	
Si		2.34300005		1.35273202		2.40223719		-0.00000000		0.00000000		-0.00003946	
Si		0.00000000		2.70546310		11.22103821		0.00000000		-0.00000000		 0.00003946	
Si		0.00000000		2.70546310		6.94333023		0.00000000		0.00000000		-0.00003395	
