# total energy = -8279.17728469 eV

CRYSTAL
PRIMVEC
		4.42155015		0.00000000		0.00000000
		0.00000000		4.21100035		0.00000000
		0.00000000		0.00000000		4.21100035
PRIMECORD
   8 1
Mg		0.00000000		0.00000000		0.00000000		0.00000000		0.00000000		0.00000000
Mg		0.00000000		2.10550018		2.10550018		0.00000000		0.00000000		0.00000000
Mg		2.21077507		0.00000000		2.10550018		0.00000000		0.00000000		0.00000000
Mg		2.21077507		2.10550018		0.00000000		0.00000000		0.00000000		0.00000000
O		2.21077507		2.10550018		2.10550018		0.00000000		0.00000000		0.00000000
O		2.21077507		0.00000000		0.00000000		0.00000000		0.00000000		0.00000000
O		0.00000000		2.10550018		0.00000000		0.00000000		0.00000000		0.00000000
O		0.00000000		0.00000000		2.10550018		0.00000000		0.00000000		0.00000000
