# total energy = -49438.0911018 eV	

CRYSTAL	
PRIMVEC	
		5.08939982		0.00000000		0.00000000	
		0.00000000		13.96800031		-1.67615821	
		0.00000000		-1.04346947		8.69560094	
PRIMCOORD
   70 1	
Si		2.54469991		0.00000000		0.00000000		-0.00000000		0.00000000		0.00000000	
Si		0.00000000		6.46226390		3.50971984		0.00000000		0.00000000		0.00000000	
Si		2.47349870		5.25923157		-0.63110797		 0.00064383		 0.00009006		-0.00034551	
Si		2.61590112		8.70876773		-1.04505176		-0.00064383		-0.00009006		 0.00034551	
Si		0.07120121		11.72149546		2.87861187		-0.00064383		 0.00009006		-0.00034551	
Si		5.01819861		1.20303284		4.14082781		 0.00064383		-0.00009006		 0.00034551	
Mg		0.86219522		2.42358797		-0.29083121		-0.00044010		-0.00026231		 0.00025741	
Mg		4.22720460		11.54441183		-1.38532903		 0.00044010		 0.00026231		-0.00025741	
Mg		1.68250469		8.88585187		3.21888863		 0.00044010		-0.00026231		 0.00025741	
Mg		3.40689513		4.03867592		3.80055003		-0.00044010		 0.00026231		-0.00025741	
Mg		0.80570289		4.18021264		2.27346391		-0.00025676		 0.00003665		-0.00007710	
Mg		4.28369694		8.74431464		4.74597476		 0.00025676		-0.00003665		 0.00007710	
Mg		4.28369694		9.11203447		1.68164611		 0.00036685		-0.00032585		 0.00006211	
Mg		0.80570289		3.81249384		5.33779358		-0.00036685		 0.00032585		-0.00006211	
Mg		1.73899703		11.31822974		0.15191400		 0.00036685		 0.00032585		-0.00006211	
Mg		3.35040280		1.60629805		6.86752466		-0.00036685		-0.00032585		 0.00006211	
Mg		3.35040280		2.28205075		1.23625491		-0.00025676		-0.00003665		 0.00007710	
Mg		1.73899703		10.64247654		5.78318375		 0.00025676		 0.00003665		-0.00007710	
Mg		2.54469991		6.64876394		1.95555506		 0.00030638		 0.00021704		-0.00061495	
Mg		2.54469991		6.27576386		5.06388361		-0.00030638		-0.00021704		 0.00061495	
Mg		0.00000000		-0.18650004		1.55416478		 0.00030638		-0.00021704		 0.00061495	
Mg		0.00000000		-0.85697197		7.14143463		-0.00030638		 0.00021704		-0.00061495	
Mg		2.54469991		-0.35675319		2.97293881		-0.00021714		-0.00038898		-0.00017991	
Mg		2.54469991		-0.68671883		5.72266061		 0.00021714		 0.00038898		 0.00017991	
Mg		0.00000000		6.81901657		0.53678103		-0.00021714		 0.00038898		 0.00017991	
Mg		0.00000000		6.10551173		6.48265763		 0.00021714		-0.00038898		-0.00017991	
O		1.69075002		5.60839086		0.66500083		 0.00008278		-0.00011965		-0.00021514	
O		3.39864980		7.31613693		6.35443784		-0.00008278		 0.00011965		 0.00021514	
O		3.39864980		8.03379473		0.37395281		 0.00016980		 0.00021597		 0.00040691	
O		1.69075002		4.89073306		6.64548687		-0.00016980		-0.00021597		-0.00040691	
O		0.85394989		12.39646846		1.45960679		 0.00016980		-0.00021597		-0.00040691	
O		4.23544892		0.52805882		5.55983290		-0.00016980		 0.00021597		 0.00040691	
O		4.23544892		0.85387304		2.84471901		 0.00008278		 0.00011965		 0.00021514	
O		0.85394989		12.07065577		4.17472067		-0.00008278		-0.00011965		-0.00021514	
O		2.50953216		3.62092475		-0.43451107		-0.00024921		-0.00013838		-0.00049427	
O		2.57986715		10.34707454		-1.24164917		 0.00024921		 0.00013838		 0.00049427	
O		0.03516775		10.08318865		3.07520877		 0.00024921		-0.00013838		-0.00049427	
O		5.05423207		2.84133965		3.94423091		-0.00024921		 0.00013838		 0.00049427	
O		4.02780191		5.78973585		-0.69476822		-0.00021923		 0.00046966		-0.00010848	
O		1.06159791		8.17826396		-0.98139202		 0.00021923		-0.00046966		 0.00010848	
O		3.60629782		12.25199974		2.81495111		 0.00021923		 0.00046966		-0.00010848	
O		1.48310200		0.67252805		4.20448806		-0.00021923		-0.00046966		 0.00010848	
O		1.81386210		0.86971379		1.13525374		 0.00026362		-0.00065443		-0.00021904	
O		3.27553773		12.05481451		5.88418493		-0.00026362		 0.00065443		 0.00021904	
O		3.27553773		12.79643065		-0.29595216		-0.00032640		 0.00000762		-0.00046250	
O		1.81386210		0.12809816		7.31539083		 0.00032640		-0.00000762		 0.00046250	
O		0.73083781		7.63383356		2.12951074		-0.00032640		-0.00000762		 0.00046250	
O		4.35856201		5.29069475		4.88992792		 0.00032640		 0.00000762		-0.00046250	
O		4.35856201		5.59254959		2.37446509		 0.00026362		 0.00065443		 0.00021904	
O		0.73083781		7.33197769		4.64497409		-0.00026362		-0.00065443		-0.00021904	
O		5.00058979		3.35171993		0.96219888		 0.00014043		-0.00008700		 0.00028538	
O		0.08881003		9.57280786		6.05724081		-0.00014043		 0.00008700		-0.00028538	
O		0.08881003		10.28403876		0.13032019		 0.00038310		-0.00022371		 0.00000955	
O		5.00058979		2.64049005		6.88911899		-0.00038310		 0.00022371		-0.00000955	
O		2.63350994		10.14622545		1.70323890		 0.00038310		 0.00022371		-0.00000955	
O		2.45588988		2.77830184		5.31619976		-0.00038310		-0.00022371		 0.00000955	
O		2.45588988		3.11054396		2.54752097		 0.00014043		 0.00008700		-0.00028538	
O		2.63350994		9.81398485		4.47191770		-0.00014043		-0.00008700		 0.00028538	
O		0.99589376		12.86159431		-1.54339103		-0.00005938		-0.00025400		-0.00013193	
O		4.09350606		1.10640498		-0.13276921		 0.00005938		 0.00025400		 0.00013193	
O		1.54880615		5.35585891		3.64248803		 0.00005938		-0.00025400		-0.00013193	
O		3.54059367		7.56866888		3.37695063		-0.00005938		 0.00025400		 0.00013193	
H		4.69802498		4.11349977		0.43626590		 0.00017101		 0.00050675		 0.00035744	
H		0.39137485		8.81102751		6.58317277		-0.00017101		-0.00050675		-0.00035744	
H		0.39137485		9.62806551		-0.22548077		-0.00031974		 0.00040823		-0.00004946	
H		4.69802498		3.29646177		7.24492096		 0.00031974		-0.00040823		 0.00004946	
H		2.93607476		10.80219768		2.05904088		-0.00031974		-0.00040823		 0.00004946	
H		2.15332506		2.12233113		4.96039779		 0.00031974		 0.00040823		-0.00004946	
H		2.15332506		2.34876413		3.07345293		 0.00017101		-0.00050675		-0.00035744	
H		2.93607476		10.57576469		3.94598574		-0.00017101		 0.00050675		 0.00035744	
