# total energy = -18511.4632366 eV	

CRYSTAL	
PRIMVEC	
		7.02600000		0.00000000		-0.28103972	
		0.00000000		6.22800274		0.00000000	
		-0.60399491		0.00000000		4.25718077	
PRIMCOORD
   30 1	
Mg		0.07553294		1.55699998		2.27434388		 0.00034184		-0.00000000		-0.00032045	
Mg		6.34647285		4.67099994		1.70179717		-0.00034184		-0.00000000		 0.00032045	
Mg		4.57511750		1.55699998		3.69867480		 0.00002006		0.00000000		 0.00055316	
Mg		1.84688758		4.67099994		0.27746484		-0.00002006		0.00000000		-0.00055316	
Mg		2.79908402		1.55699998		0.06582298		 0.00029548		0.00000000		-0.00047112	
Mg		3.62292177		4.67099994		3.91031667		-0.00029548		0.00000000		 0.00047112	
Si		0.00000000		0.00000000		0.00000000		0.00000000		0.00000000		0.00000000	
Si		0.00000000		3.11399996		0.00000000		0.00000000		0.00000000		0.00000000	
Si		1.98336286		3.12645577		2.26999201		 0.00013250		-0.00017167		-0.00038338	
Si		4.43864152		3.10154415		1.70614764		-0.00013250		 0.00017167		 0.00038338	
Si		4.43864152		0.01245581		1.70614764		-0.00013250		-0.00017167		 0.00038338	
Si		1.98336286		6.21554341		2.26999201		 0.00013250		 0.00017167		-0.00038338	
O		5.48003263		3.48767984		0.37342182		-0.00020588		 0.00036015		 0.00010759	
O		0.94197316		2.74032008		3.60271853		 0.00020588		-0.00036015		-0.00010759	
O		0.94197316		0.37367988		3.60271853		 0.00020588		 0.00036015		-0.00010759	
O		5.48003263		5.85432004		0.37342182		-0.00020588		-0.00036015		 0.00010759	
O		5.75213375		2.74654798		2.54254316		 0.00030494		-0.00013958		 0.00018649	
O		0.66987204		3.48145194		1.43359719		-0.00030494		 0.00013958		-0.00018649	
O		0.66987204		5.86054795		1.43359719		-0.00030494		-0.00013958		-0.00018649	
O		5.75213375		0.36745198		2.54254316		 0.00030494		 0.00013958		 0.00018649	
O		1.89084293		1.55699998		1.74033185		-0.00030432		0.00000000		-0.00055766	
O		4.53116285		4.67099994		2.23580780		 0.00030432		0.00000000		 0.00055766	
O		3.07113662		3.45653962		0.90577791		 0.00007798		-0.00039046		 0.00032466	
O		3.35086776		2.77145960		3.07036174		-0.00007798		 0.00039046		-0.00032466	
O		3.35086776		0.34253966		3.07036174		-0.00007798		-0.00039046		-0.00032466	
O		3.07113662		5.88545956		0.90577791		 0.00007798		 0.00039046		 0.00032466	
O		4.33569371		1.55699998		1.15150765		-0.00027427		-0.00000000		 0.00006760	
O		2.08631208		4.67099994		2.82463270		 0.00027427		-0.00000000		-0.00006760	
O		6.80136441		1.55699998		0.21897584		-0.00007568		-0.00000000		-0.00013222	
O		-0.37935932		4.67099994		3.75716380		 0.00007568		-0.00000000		 0.00013222	
