# total energy = -18499.8567171 eV	

CRYSTAL	
PRIMVEC	
		7.02600099		0.00000000		-0.84311842	
		0.00000000		6.22800174		0.00000000	
		-0.94317880		0.00000000		4.29193237	
PRIMCOORD
   30 1	
Mg		-0.10694785		1.55699973		2.26100166		 0.00078649		-0.00000000		 0.00012206	
Mg		6.18977004		4.67099989		1.18781088		-0.00078649		-0.00000000		-0.00012206	
Mg		4.26408601		1.55699973		3.32022362		-0.00087744		0.00000000		-0.00011776	
Mg		1.81873618		4.67099989		0.12858821		 0.00087744		0.00000000		 0.00011776	
Mg		2.78483900		1.55699973		-0.15867284		 0.00027225		0.00000000		 0.00027324	
Mg		3.29798318		4.67099989		3.60748609		-0.00027225		0.00000000		-0.00027324	
Si		0.00000000		0.00000000		0.00000000		0.00000000		-0.00000000		0.00000000	
Si		0.00000000		3.11400016		0.00000000		0.00000000		-0.00000000		0.00000000	
Si		1.79511584		3.12645605		2.10379293		-0.00028820		 0.00028148		-0.00010280	
Si		4.28770493		3.10154427		1.34502032		 0.00028820		-0.00028148		 0.00010280	
Si		4.28770493		0.01245589		1.34502032		 0.00028820		 0.00028148		 0.00010280	
Si		1.79511584		6.21554372		2.10379293		-0.00028820		-0.00028148		-0.00010280	
O		5.43254716		3.48767970		-0.06687982		-0.00033861		-0.00031108		-0.00018125	
O		0.65027503		2.74031991		3.51569307		 0.00033861		 0.00031108		 0.00018125	
O		0.65027503		0.37368025		3.51569307		 0.00033861		-0.00031108		 0.00018125	
O		5.43254716		5.85432007		-0.06687982		-0.00033861		 0.00031108		-0.00018125	
O		5.52996804		2.74654786		2.07348610		 0.00024084		-0.00038454		 0.00016528	
O		0.55285273		3.48145175		1.37532715		-0.00024084		 0.00038454		-0.00016528	
O		0.55285273		5.86054802		1.37532715		-0.00024084		-0.00038454		-0.00016528	
O		5.52996804		0.36745230		2.07348610		 0.00024084		 0.00038454		 0.00016528	
O		1.74533191		1.55699973		1.58324399		-0.00017086		-0.00000000		 0.00033707	
O		4.33748886		4.67099989		1.86556784		 0.00017086		-0.00000000		-0.00033707	
O		2.98871593		3.45653997		0.65679098		-0.00026872		-0.00001799		 0.00025124	
O		3.09410626		2.77145964		2.79202226		 0.00026872		 0.00001799		-0.00025124	
O		3.09410626		0.34253981		2.79202226		 0.00026872		-0.00001799		-0.00025124	
O		2.98871593		5.88545980		0.65679098		-0.00026872		 0.00001799		 0.00025124	
O		4.22952908		1.55699973		0.80040594		 0.00019728		-0.00000000		 0.00009758	
O		1.85329169		4.67099989		2.64840660		-0.00019728		-0.00000000		-0.00009758	
O		6.76201919		1.55699973		-0.32670706		 0.00023487		0.00000000		 0.00000591	
O		-0.67919772		4.67099989		3.77551960		-0.00023487		0.00000000		-0.00000591	
