# total energy = -18506.8923605 eV	

CRYSTAL	
PRIMVEC	
		7.02599785		0.00000000		-0.56207842	
		0.00000000		6.22800086		0.00000000	
		-0.77358822		0.00000000		4.27455897	
PRIMCOORD
   30 1	
Mg		-0.01570676		1.55699986		2.26767294		 0.00004018		0.00000000		-0.00019553	
Mg		6.26812062		4.67099959		1.44480409		-0.00004018		0.00000000		 0.00019553	
Mg		4.41960192		1.55699986		3.50945003		-0.00079154		0.00000000		-0.00000451	
Mg		1.83281194		4.67099959		0.20302700		 0.00079154		0.00000000		 0.00000451	
Mg		2.79196111		1.55699986		-0.04642530		 0.00020545		0.00000000		-0.00012223	
Mg		3.46045205		4.67099959		3.75890092		-0.00020545		0.00000000		 0.00012223	
Si		0.00000000		0.00000000		0.00000000		0.00000000		0.00000000		0.00000000	
Si		0.00000000		3.11399972		0.00000000		0.00000000		0.00000000		0.00000000	
Si		1.88923970		3.12645574		2.18689210		-0.00001396		 0.00038355		-0.00001619	
Si		4.36317416		3.10154371		1.52558423		 0.00001396		-0.00038355		 0.00001619	
Si		4.36317416		0.01245602		1.52558423		 0.00001396		 0.00038355		 0.00001619	
Si		1.88923970		6.21554414		2.18689210		-0.00001396		-0.00038355		-0.00001619	
O		5.45628964		3.48768020		0.15327130		 0.00004576		 0.00012950		-0.00005459	
O		0.79612422		2.74031995		3.55920573		-0.00004576		-0.00012950		 0.00005459	
O		0.79612422		0.37367977		3.55920573		-0.00004576		 0.00012950		 0.00005459	
O		5.45628964		5.85431968		0.15327130		 0.00004576		-0.00012950		-0.00005459	
O		5.64105058		2.74654796		2.30801402		 0.00004515		-0.00011306		 0.00007901	
O		0.61136328		3.48145219		1.40446230		-0.00004515		 0.00011306		-0.00007901	
O		0.61136328		5.86054769		1.40446230		-0.00004515		-0.00011306		-0.00007901	
O		5.64105058		0.36745176		2.30801402		 0.00004515		 0.00011306		 0.00007901	
O		1.81808703		1.55699986		1.66178772		-0.00023440		0.00000000		 0.00007652	
O		4.43432612		4.67099959		2.05068790		 0.00023440		0.00000000		-0.00007652	
O		3.02992726		3.45654016		0.78128512		-0.00025618		-0.00023075		 0.00018050	
O		3.22248660		2.77145999		2.93119190		 0.00025618		 0.00023075		-0.00018050	
O		3.22248660		0.34253973		2.93119190		 0.00025618		-0.00023075		-0.00018050	
O		3.02992726		5.88545972		0.78128512		-0.00025618		 0.00023075		 0.00018050	
O		4.28261112		1.55699986		0.97595689		 0.00026876		0.00000000		-0.00020353	
O		1.96980204		4.67099959		2.73652014		-0.00026876		0.00000000		 0.00020353	
O		6.78169162		1.55699986		-0.05386635		-0.00011385		0.00000000		 0.00003303	
O		-0.52927776		4.67099959		3.76634197		 0.00011385		0.00000000		-0.00003303	
