# total energy = -2552.67288205 eV

CRYSTAL
PRIMVEC
		3.14199893		0.25135928		0.00000000
		-1.35331498		2.59537247		0.00000000
		0.00000000		0.00000000		4.76599834
PRIMECORD
   5 1
Mg		0.00000000		0.00000000		0.00000000		0.00000000		0.00000000		0.00000000
O		0.14512299		1.81403485		1.05614587		-0.00065539		 0.00016188		-0.00001913
O		1.64356096		1.03269691		3.70985374		 0.00065539		-0.00016188		 0.00001913
H		0.14512299		1.81403485		2.05080996		-0.00077682		 0.00003672		-0.00045273
H		1.64356096		1.03269691		2.71518995		 0.00077682		-0.00003672		 0.00045273
