# total energy = -2552.43728555 eV

CRYSTAL
PRIMVEC
		3.14200054		0.37703931		0.00000000
		-1.24447496		2.53253199		0.00000000
		0.00000000		0.00000000		4.76599897
PRIMECORD
   5 1
Mg		0.00000000		0.00000000		0.00000000		0.00000000		0.00000000		0.00000000
O		0.21768407		1.81403516		1.05614613		 0.00004411		-0.00012585		 0.00032380
O		1.67984215		1.09553708		3.70985411		-0.00004411		 0.00012585		-0.00032380
H		0.21768407		1.81403516		2.05080996		 0.00003229		-0.00003410		-0.00028569
H		1.67984215		1.09553708		2.71518996		-0.00003229		 0.00003410		 0.00028569
