# total energy = -2552.81397212 eV

CRYSTAL
PRIMVEC
		3.14200028		-0.12567989		0.00000000
		-1.67984273		2.78389059		0.00000000
		0.00000000		0.00000000		4.76599960
PRIMECORD
   5 1
Mg		0.00000000		0.00000000		0.00000000		0.00000000		0.00000000		0.00000000
O		-0.07256089		1.81403513		1.05614592		 0.00000414		 0.00004967		-0.00026526
O		1.53471906		0.84417715		3.70985431		-0.00000414		-0.00004967		 0.00026526
H		-0.07256089		1.81403513		2.05081002		 0.00047047		 0.00001154		 0.00058650
H		1.53471906		0.84417715		2.71519022		-0.00047047		-0.00001154		-0.00058650
