# total energy = -2552.81397212 eV

CRYSTAL
PRIMVEC
		3.14200028		0.12567989		0.00000000
		-1.46215755		2.65821070		0.00000000
		0.00000000		0.00000000		4.76599960
PRIMECORD
   5 1
Mg		0.00000000		0.00000000		0.00000000		0.00000000		0.00000000		0.00000000
O		0.07256089		1.81403513		1.05614592		-0.00000415		 0.00004966		-0.00026512
O		1.60728121		0.96985703		3.70985431		 0.00000415		-0.00004966		 0.00026512
H		0.07256089		1.81403513		2.05081002		-0.00047047		 0.00001154		 0.00058637
H		1.60728121		0.96985703		2.71519022		 0.00047047		-0.00001154		-0.00058637
