# total energy = -2552.10552297 eV

CRYSTAL
PRIMVEC
		3.14200087		-0.50272154		0.00000000
		-2.00636777		2.97241178		0.00000000
		0.00000000		0.00000000		4.76599849
PRIMECORD
   5 1
Mg		0.00000000		0.00000000		0.00000000		0.00000000		0.00000000		0.00000000
O		-0.29024595		1.81403496		1.05614575		-0.00000585		-0.00012784		 0.00052328
O		1.42587682		0.65565687		3.70985369		 0.00000585		 0.00012784		-0.00052328
H		-0.29024595		1.81403496		2.05080993		-0.00010134		-0.00019113		-0.00048660
H		1.42587682		0.65565687		2.71518983		 0.00010134		 0.00019113		 0.00048660
