# total energy = -2552.6728192 eV

CRYSTAL
PRIMVEC
		3.14199893		-0.25135928		0.00000000
		-1.78868395		2.84673175		0.00000000
		0.00000000		0.00000000		4.76599834
PRIMECORD
   5 1
Mg		0.00000000		0.00000000		0.00000000		0.00000000		0.00000000		0.00000000
O		-0.14512299		1.81403485		1.05614587		 0.00065581		 0.00016048		-0.00001930
O		1.49843892		0.78133699		3.70985374		-0.00065581		-0.00016048		 0.00001930
H		-0.14512299		1.81403485		2.05080996		 0.00077629		 0.00003722		-0.00045203
H		1.49843892		0.78133699		2.71518995		-0.00077629		-0.00003722		 0.00045203
