# total energy = -41251.5609153 eV	

CRYSTAL	
PRIMVEC	
		8.12000311		-1.29920412		0.00000000	
		-1.29920412		8.12000311		0.00000000	
		0.00000000		0.00000000		8.12000311	
PRIMCOORD
   56 1	
Si		0.85260029		0.85260029		1.01500018		-0.00000001		-0.00000001		 0.00012854	
Si		5.96820036		5.96820036		7.10500046		 0.00000001		 0.00000001		-0.00012854	
Si		4.91260020		0.20299987		5.07500010		-0.00000001		0.00000000		 0.00012873	
Si		1.90819962		6.61779995		3.04499973		 0.00000001		-0.00000000		-0.00012873	
Si		0.20299987		4.91260020		5.07500010		0.00000000		-0.00000001		 0.00012873	
Si		6.61779995		1.90819962		3.04499973		-0.00000000		 0.00000001		-0.00012873	
Si		4.26299978		4.26299978		1.01500018		-0.00000001		-0.00000001		 0.00012854	
Si		2.55780003		2.55780003		7.10500046		 0.00000001		 0.00000001		-0.00012854	
Mg		3.41040032		3.41040032		4.05999991		0.00000000		0.00000000		0.00000000	
Mg		1.05560016		5.76519966		0.00000000		0.00000000		-0.00000000		0.00000000	
Mg		5.76519966		1.05560016		0.00000000		-0.00000000		0.00000000		0.00000000	
Mg		6.09000028		-0.97440021		2.03000037		 0.00000002		-0.00000002		 0.00000001	
Mg		2.03000037		-0.32479980		6.09000028		-0.00000002		 0.00000002		-0.00000001	
Mg		-0.32479980		2.03000037		6.09000028		 0.00000002		-0.00000002		-0.00000001	
Mg		-0.97440021		6.09000028		2.03000037		-0.00000002		 0.00000002		 0.00000001	
Mg		4.05999991		-0.64960041		0.00000000		0.00000000		0.00000000		0.00000000	
Mg		1.70519975		1.70519975		4.05999991		-0.00000001		-0.00000001		-0.00000001	
Mg		5.11560007		5.11560007		4.05999991		 0.00000001		 0.00000001		 0.00000001	
Mg		5.44039987		3.08559970		6.09000028		-0.00000001		 0.00000001		-0.00000001	
Mg		1.38039995		3.73520012		2.03000037		 0.00000001		-0.00000001		 0.00000001	
Mg		-0.64960041		4.05999991		0.00000000		0.00000000		0.00000000		0.00000000	
Mg		3.73520012		1.38039995		2.03000037		-0.00000001		 0.00000001		 0.00000001	
Mg		3.08559970		5.44039987		6.09000028		 0.00000001		-0.00000001		-0.00000001	
Mg		0.00000000		0.00000000		4.05999991		0.00000000		0.00000000		0.00000000	
O		1.64790487		1.64790487		1.96179238		 0.00020754		 0.00020754		-0.00016162	
O		5.17289412		5.17289412		6.15820827		-0.00020754		-0.00020754		 0.00016162	
O		4.11729397		-0.59230472		6.02179229		-0.00020748		-0.00020748		-0.00016167	
O		2.70350503		7.41310536		2.09820836		 0.00020748		 0.00020748		 0.00016167	
O		-0.89527911		6.01087917		4.12820790		 0.00015260		-0.00015260		-0.00007703	
O		7.71607892		0.80992064		3.99179192		-0.00015260		 0.00015260		 0.00007703	
O		5.36127876		3.16472081		0.06820799		-0.00015262		 0.00015263		-0.00007697	
O		1.45952106		3.65607901		8.05179183		 0.00015262		-0.00015263		 0.00007697	
O		7.41310536		2.70350503		2.09820836		 0.00020748		 0.00020748		 0.00016167	
O		-0.59230472		4.11729397		6.02179229		-0.00020748		-0.00020748		-0.00016167	
O		3.65607901		1.45952106		8.05179183		-0.00015263		 0.00015262		 0.00007697	
O		3.16472081		5.36127876		0.06820799		 0.00015263		-0.00015262		-0.00007697	
O		0.80992064		7.71607892		3.99179192		 0.00015260		-0.00015260		 0.00007703	
O		6.01087917		-0.89527911		4.12820790		-0.00015260		 0.00015260		-0.00007703	
O		0.99830528		5.70790478		6.02179229		 0.00020747		 0.00020748		-0.00016168	
O		5.82249371		1.11289503		2.09820836		-0.00020747		-0.00020748		 0.00016168	
O		3.46769437		3.46769437		1.96179238		-0.00020754		-0.00020754		-0.00016160	
O		3.35310544		3.35310544		6.15820827		 0.00020754		 0.00020754		 0.00016160	
O		-0.24567869		1.95087926		0.06820799		 0.00015263		-0.00015262		-0.00007696	
O		7.06647933		4.86992138		8.05179183		-0.00015263		 0.00015262		 0.00007696	
O		6.76350494		6.76350494		6.15820827		 0.00020755		 0.00020755		 0.00016162	
O		0.05729488		0.05729488		1.96179238		-0.00020755		-0.00020755		-0.00016162	
O		3.00647942		5.51952097		3.99179192		-0.00015260		 0.00015260		 0.00007704	
O		3.81432122		1.30127885		4.12820790		 0.00015260		-0.00015260		-0.00007704	
O		5.70790478		0.99830528		6.02179229		 0.00020748		 0.00020747		-0.00016168	
O		1.11289503		5.82249371		2.09820836		-0.00020748		-0.00020747		 0.00016168	
O		1.30127885		3.81432122		4.12820790		-0.00015260		 0.00015260		-0.00007704	
O		5.51952097		3.00647942		3.99179192		 0.00015260		-0.00015260		 0.00007704	
O		4.86992138		7.06647933		8.05179183		 0.00015262		-0.00015263		 0.00007696	
O		1.95087926		-0.24567869		0.06820799		-0.00015262		 0.00015263		-0.00007696	
O		5.05830519		5.05830519		1.96179238		 0.00020755		 0.00020755		-0.00016162	
O		1.76249463		1.76249463		6.15820827		-0.00020755		-0.00020755		 0.00016162	
