# total energy = -49422.3964505 eV

CRYSTAL
PRIMVEC
		18.23299940		0.00000000		0.00000000
		0.00000000		8.81910125		1.05829798
		0.00000000		0.62161765		5.18019569
PRIMECORD
   80 1
Mg		6.86107767		6.30708622		5.17983650		 0.00016954		-0.00024588		-0.00016271
Mg		11.37192172		3.13363814		1.05865535		-0.00016954		 0.00024588		 0.00016271
Mg		2.25542203		3.27822765		2.26357035		 0.00017835		-0.00033031		 0.00030935
Mg		15.97757737		6.16249671		3.97492150		-0.00017835		 0.00033031		-0.00030935
Mg		11.37192172		1.75294609		3.44577615		 0.00017835		 0.00033031		-0.00030935
Mg		6.86107767		7.68777828		2.79271570		-0.00017835		-0.00033031		 0.00030935
Mg		15.97757737		7.54318694		1.58780252		 0.00016954		 0.00024588		 0.00016271
Mg		2.25542203		1.89753560		4.65068933		-0.00016954		-0.00024588		-0.00016271
Mg		6.87201747		4.51976546		2.37477342		-0.00027747		 0.00005270		 0.00042144
Mg		11.36098192		4.92095708		3.86371844		 0.00027747		-0.00005270		-0.00042144
Mg		2.24448223		5.05634622		4.99196550		 0.00029260		-0.00043890		 0.00032435
Mg		15.98851717		4.38437632		1.24652635		-0.00029260		 0.00043890		-0.00032435
Mg		11.36098192		8.79392694		1.77567170		 0.00029260		 0.00043890		-0.00032435
Mg		6.87201747		0.64679742		4.46282015		-0.00029260		-0.00043890		 0.00032435
Mg		15.98851717		0.51140828		3.33457127		-0.00027747		-0.00005270		-0.00042144
Mg		2.24448223		8.92931608		2.90392058		 0.00027747		 0.00005270		 0.00042144
Si		4.95025934		3.04582255		0.62384207		-0.00034241		-0.00008371		 0.00015149
Si		13.28274006		6.39490181		5.61464978		 0.00034241		 0.00008371		-0.00015149
Si		4.16624036		6.14699866		3.54878531		 0.00007316		 0.00020111		 0.00034074
Si		14.06675903		3.29372570		2.68970654		-0.00007316		-0.00020111		-0.00034074
Si		13.28274006		7.70327632		3.21885189		 0.00007316		-0.00020111		-0.00034074
Si		4.95025934		1.73744804		3.01963996		-0.00007316		 0.00020111		 0.00034074
Si		14.06675903		1.98535119		5.08550443		-0.00034241		 0.00008371		-0.00015149
Si		4.16624036		7.45537317		1.15298742		 0.00034241		-0.00008371		 0.00015149
Si		8.63514851		3.47168160		4.49138397		-0.00026672		-0.00049017		-0.00011325
Si		9.59785088		5.96904094		1.74710606		 0.00026672		 0.00049017		 0.00011325
Si		0.48135118		6.02884153		2.24544128		-0.00004014		-0.00002942		 0.00010425
Si		17.75164821		3.41188101		3.99305057		 0.00004014		 0.00002942		-0.00010425
Si		9.59785088		7.82143163		4.52219592		-0.00004014		 0.00002942		-0.00010425
Si		8.63514851		1.61929273		1.71629594		 0.00004014		-0.00002942		 0.00010425
Si		17.75164821		1.55949214		1.21796071		-0.00026672		 0.00049017		 0.00011325
Si		0.48135118		7.88123222		5.02053114		 0.00026672		-0.00049017		-0.00011325
O		3.34575539		3.02580272		0.53668651		-0.00029633		-0.00010016		-0.00042254
O		14.88724401		6.41492165		5.70180534		 0.00029633		 0.00010016		 0.00042254
O		5.77074431		6.14638056		3.46395810		-0.00026014		-0.00055897		-0.00013587
O		12.46225509		3.29434380		2.77453375		 0.00026014		 0.00055897		 0.00013587
O		14.88724401		7.70389442		3.30367910		-0.00026014		 0.00055897		 0.00013587
O		3.34575539		1.73682994		2.93481276		 0.00026014		-0.00055897		-0.00013587
O		12.46225509		2.00537103		5.17265817		-0.00029633		 0.00010016		 0.00042254
O		5.77074431		7.43535334		1.06583368		 0.00029633		-0.00010016		-0.00042254
O		5.67775601		4.46185563		0.75496469		-0.00035111		-0.00019773		 0.00011010
O		12.55524338		4.97886874		5.48352899		 0.00035111		 0.00019773		-0.00011010
O		3.43874369		4.72151724		3.33892531		-0.00028469		 0.00042610		 0.00036082
O		14.79425571		4.71920712		2.89956654		 0.00028469		-0.00042610		-0.00036082
O		12.55524338		0.30965832		2.37041938		-0.00028469		-0.00042610		-0.00036082
O		5.67775601		9.13106604		3.86807248		 0.00028469		 0.00042610		 0.00036082
O		14.79425571		9.38841936		6.01267433		-0.00035111		 0.00019773		-0.00011010
O		3.43874369		0.05230501		0.22581752		 0.00035111		-0.00019773		 0.00011010
O		5.51548232		2.47855930		4.54529166		-0.00045210		-0.00007137		 0.00026810
O		12.71751708		6.96216507		1.69320020		 0.00045210		 0.00007137		-0.00026810
O		3.60101738		7.06411124		2.54275404		-0.00031859		-0.00066471		-0.00055596
O		14.63198202		2.37661313		3.69573781		 0.00031859		 0.00066471		 0.00055596
O		12.71751708		6.78616193		4.22488316		-0.00031859		 0.00066471		 0.00055596
O		5.51548232		2.65456062		2.01360869		 0.00031859		-0.00066471		-0.00055596
O		14.63198202		2.55261445		1.16405485		-0.00045210		 0.00007137		-0.00026810
O		3.60101738		6.88810809		5.07443700		 0.00045210		-0.00007137		 0.00026810
O		10.25059226		3.50689681		4.49509986		-0.00041553		 0.00042725		-0.00014863
O		7.98240714		5.93382755		1.74339200		 0.00041553		-0.00042725		 0.00014863
O		17.09890683		5.99350233		2.24069159		 0.00003573		-0.00033455		-0.00043956
O		1.13409256		3.44722021		3.99780027		-0.00003573		 0.00033455		 0.00043956
O		7.98240714		7.85677083		4.52694744		 0.00003573		 0.00033455		 0.00043956
O		10.25059226		1.58395353		1.71154442		-0.00003573		-0.00033455		-0.00043956
O		1.13409256		1.52427693		1.21424665		-0.00041553		-0.00042725		 0.00014863
O		17.09890683		7.91644744		5.02424702		 0.00041553		 0.00042725		-0.00014863
O		7.88394894		4.69383773		4.08612821		-0.00040582		 0.00003268		 0.00030183
O		10.34905046		4.74688664		2.15236364		 0.00040582		-0.00003268		-0.00030183
O		1.23255076		4.67229179		1.53074052		-0.00023714		-0.00006249		 0.00076388
O		17.00044864		4.76843257		4.70775133		 0.00023714		 0.00006249		-0.00076388
O		10.34905046		9.17798320		5.23689850		-0.00023714		 0.00006249		-0.00076388
O		7.88394894		0.26274117		1.00159336		 0.00023714		-0.00006249		 0.00076388
O		17.00044864		0.33733784		1.62321830		-0.00040582		-0.00003268		-0.00030183
O		1.23255076		9.10338835		4.61527355		 0.00040582		 0.00003268		 0.00030183
O		8.17385363		2.09544569		3.33013336		 0.00054100		-0.00047397		 0.00050766
O		10.05914577		7.34527867		2.90835850		-0.00054100		 0.00047397		-0.00050766
O		0.94264607		7.16252021		1.38537976		-0.00004435		 0.00017800		-0.00038791
O		17.29035333		2.27820233		4.85311209		 0.00004435		-0.00017800		 0.00038791
O		10.05914577		6.68775296		5.38225744		-0.00004435		-0.00017800		 0.00038791
O		8.17385363		2.75297141		0.85623441		 0.00004435		 0.00017800		-0.00038791
O		17.29035333		2.93572805		2.37921315		 0.00054100		 0.00047397		-0.00050766
O		0.94264607		6.50499631		3.85927870		-0.00054100		-0.00047397		 0.00050766
