# total energy = -14247.5539569 eV	

CRYSTAL	
PRIMVEC	
		7.73000250		0.00000000		-1.23680384	
		0.00000000		7.73000250		0.00000000	
		-0.80159631		0.00000000		5.00999849	
PRIMCOORD
   24 1	
Ca		2.14208389		1.31409988		2.14695623		-0.00054664		 0.00022508		-0.00017923	
Ca		4.77028364		6.41589949		1.72644402		-0.00027793		-0.00075651		 0.00004366	
Ca		0.92131557		5.17909956		2.24464425		 0.00054664		 0.00022508		 0.00017923	
Ca		6.02311597		2.55089981		1.42835575		 0.00027793		-0.00075651		-0.00004366	
Si		0.32068002		2.78279965		4.58634791		-0.00069614		 0.00003535		 0.00062753	
Si		5.88628009		4.94719972		3.69585164		-0.00058758		 0.00008133		 0.00005984	
Si		2.74272022		6.64779933		-0.19474821		 0.00069614		 0.00003535		-0.00062753	
Si		4.90711951		1.08220004		-0.54105187		 0.00058758		 0.00008133		-0.00005984	
Mg		0.00000000		0.00000000		0.00000000		-0.00039243		 0.00022716		 0.00041588	
Mg		3.86499968		3.86499968		-0.61840036		 0.00039243		 0.00022716		-0.00041588	
O		3.71269584		0.00000000		0.33349967		-0.00032340		 0.00085303		-0.00053905	
O		-0.64929560		3.86499968		4.05810003		 0.00032340		 0.00085303		 0.00053905	
O		0.87378359		2.78279965		1.12944785		 0.00042500		 0.00074861		 0.00021187	
O		6.43938366		4.94719972		0.23895237		 0.00001749		-0.00082124		 0.00020934	
O		2.18961587		6.64779933		3.26215185		-0.00042500		 0.00074861		-0.00021187	
O		4.35401594		1.08220004		2.91584818		-0.00001749		-0.00082124		-0.00020934	
O		-0.03089602		1.39139982		3.95915557		 0.00006971		-0.00016991		-0.00023516	
O		6.46230341		6.33859954		2.92024378		 0.00013481		-0.00012739		-0.00082808	
O		1.23909598		7.11159979		0.72927596		 0.00050094		 0.00012520		-0.00071049	
O		6.18629570		0.61840036		-0.06227584		 0.00018532		-0.00042072		-0.00051072	
O		3.09429548		5.25639951		0.43244413		-0.00006971		-0.00016991		 0.00023516	
O		4.33109541		2.47359986		0.23455599		-0.00013481		-0.00012739		 0.00082808	
O		1.82430426		3.24660011		3.66232374		-0.00050094		 0.00012520		 0.00071049	
O		4.60710391		4.48340004		3.21707561		-0.00018532		-0.00042072		 0.00051072	
