# total energy = -49447.9447907 eV	

CRYSTAL	
PRIMVEC	
		5.08939982		0.00000000		0.00000000	
		0.00000000		14.31719930		0.00000000	
		0.00000000		0.00000000		8.69560094	
PRIMCOORD
   70 1	
Si		2.54469991		0.00000000		0.00000000		0.00000000		0.00000000		0.00000000	
Si		0.00000000		7.15859965		4.34779996		0.00000000		0.00000000		0.00000000	
Si		2.47349870		5.39071163		0.00000000		-0.00007070		 0.00089487		0.00000000	
Si		2.61590112		8.92648767		0.00000000		 0.00007070		-0.00089487		0.00000000	
Si		0.07120121		12.54931281		4.34779996		 0.00007070		 0.00089487		0.00000000	
Si		5.01819861		1.76788802		4.34779996		-0.00007070		-0.00089487		0.00000000	
Mg		0.86219522		2.48417677		0.00000000		-0.00041257		-0.00036905		-0.00000000	
Mg		4.22720460		11.83302254		0.00000000		 0.00041257		 0.00036905		-0.00000000	
Mg		1.68250469		9.64277744		4.34779996		 0.00041257		-0.00036905		0.00000000	
Mg		3.40689513		4.67442288		4.34779996		-0.00041257		 0.00036905		0.00000000	
Mg		0.80570289		4.63104186		2.81563513		-0.00055756		-0.00011858		 0.00049294	
Mg		4.28369694		9.68615846		5.87996480		 0.00055756		 0.00011858		-0.00049294	
Mg		4.28369694		9.68615846		2.81563513		 0.00055756		 0.00011858		 0.00049294	
Mg		0.80570289		4.63104186		5.87996480		-0.00055756		-0.00011858		-0.00049294	
Mg		1.73899703		11.78964151		1.53216483		 0.00055756		-0.00011858		-0.00049294	
Mg		3.35040280		2.52755779		7.16343458		-0.00055756		 0.00011858		 0.00049294	
Mg		3.35040280		2.52755779		1.53216483		-0.00055756		 0.00011858		-0.00049294	
Mg		1.73899703		11.78964151		7.16343458		 0.00055756		-0.00011858		 0.00049294	
Mg		2.54469991		7.15859965		2.79363467		0.00000000		0.00000000		 0.00059792	
Mg		2.54469991		7.15859965		5.90196373		0.00000000		0.00000000		-0.00059792	
Mg		0.00000000		0.00000000		1.55416478		0.00000000		0.00000000		-0.00059792	
Mg		0.00000000		0.00000000		7.14143463		0.00000000		0.00000000		 0.00059792	
Mg		2.54469991		0.00000000		2.97293881		0.00000000		0.00000000		-0.00060416	
Mg		2.54469991		0.00000000		5.72266061		0.00000000		0.00000000		 0.00060416	
Mg		0.00000000		7.15859965		1.37486116		0.00000000		0.00000000		 0.00060416	
Mg		0.00000000		7.15859965		7.32073775		0.00000000		0.00000000		-0.00060416	
O		1.69075002		5.91558093		1.35755720		-0.00008447		-0.00040371		 0.00092548	
O		3.39864980		8.40161991		7.33804273		 0.00008447		 0.00040371		-0.00092548	
O		3.39864980		8.40161991		1.35755720		 0.00008447		 0.00040371		 0.00092548	
O		1.69075002		5.91558093		7.33804273		-0.00008447		-0.00040371		-0.00092548	
O		0.85394989		13.07418058		2.99024277		 0.00008447		-0.00040371		-0.00092548	
O		4.23544892		1.24301873		5.70535665		-0.00008447		 0.00040371		 0.00092548	
O		4.23544892		1.24301873		2.99024277		-0.00008447		 0.00040371		-0.00092548	
O		0.85394989		13.07418058		5.70535665		 0.00008447		-0.00040371		 0.00092548	
O		2.50953216		3.71144787		0.00000000		-0.00044859		 0.00084684		0.00000000	
O		2.57986715		10.60575143		0.00000000		 0.00044859		-0.00084684		-0.00000000	
O		0.03516775		10.87004753		4.34779996		 0.00044859		 0.00084684		0.00000000	
O		5.05423207		3.44715280		4.34779996		-0.00044859		-0.00084684		0.00000000	
O		4.02780191		5.93447990		0.00000000		 0.00045668		 0.00025068		-0.00000000	
O		1.06159791		8.38272093		0.00000000		-0.00045668		-0.00025068		-0.00000000	
O		3.60629782		13.09307955		4.34779996		-0.00045668		 0.00025068		0.00000000	
O		1.48310200		1.22412077		4.34779996		 0.00045668		-0.00025068		0.00000000	
O		1.81386210		1.04615820		1.25773218		-0.00013899		 0.00011806		 0.00027341	
O		3.27553773		13.27104263		7.43786774		 0.00013899		-0.00011806		-0.00027341	
O		3.27553773		13.27104263		1.25773218		 0.00013899		-0.00011806		 0.00027341	
O		1.81386210		1.04615820		7.43786774		-0.00013899		 0.00011806		-0.00027341	
O		0.73083781		8.20475785		3.09006778		 0.00013899		 0.00011806		-0.00027341	
O		4.35856201		6.11244298		5.60553062		-0.00013899		-0.00011806		 0.00027341	
O		4.35856201		6.11244298		3.09006778		-0.00013899		-0.00011806		-0.00027341	
O		0.73083781		8.20475785		5.60553062		 0.00013899		 0.00011806		 0.00027341	
O		5.00058979		3.60578684		1.38433914		-0.00046758		 0.00054578		-0.00020173	
O		0.08881003		10.71141246		7.31125976		 0.00046758		-0.00054578		 0.00020173	
O		0.08881003		10.71141246		1.38433914		 0.00046758		-0.00054578		-0.00020173	
O		5.00058979		3.60578684		7.31125976		-0.00046758		 0.00054578		 0.00020173	
O		2.63350994		10.76438650		2.96345980		 0.00046758		 0.00054578		 0.00020173	
O		2.45588988		3.55281281		5.73213860		-0.00046758		-0.00054578		-0.00020173	
O		2.45588988		3.55281281		2.96345980		-0.00046758		-0.00054578		 0.00020173	
O		2.63350994		10.76438650		5.73213860		 0.00046758		 0.00054578		-0.00020173	
O		0.99589376		13.18313445		0.00000000		-0.00061413		-0.00065509		0.00000000	
O		4.09350606		1.13406486		0.00000000		 0.00061413		 0.00065509		0.00000000	
O		1.54880615		6.02453480		4.34779996		 0.00061413		-0.00065509		0.00000000	
O		3.54059367		8.29266451		4.34779996		-0.00061413		 0.00065509		0.00000000	
H		4.69802498		4.33238468		0.94347294		 0.00014534		 0.00041707		 0.00031848	
H		0.39137485		9.98481462		7.75212648		-0.00014534		-0.00041707		-0.00031848	
H		0.39137485		9.98481462		0.94347294		-0.00014534		-0.00041707		 0.00031848	
H		4.69802498		4.33238468		7.75212648		 0.00014534		 0.00041707		-0.00031848	
H		2.93607476		11.49098484		3.40432702		-0.00014534		 0.00041707		-0.00031848	
H		2.15332506		2.82621497		5.29127188		 0.00014534		-0.00041707		 0.00031848	
H		2.15332506		2.82621497		3.40432702		 0.00014534		-0.00041707		-0.00031848	
H		2.93607476		11.49098484		5.29127188		-0.00014534		 0.00041707		 0.00031848	
