# total energy = -2552.58097661 eV	

CRYSTAL	
PRIMVEC	
		2.82780019		0.00000000		0.00000000	
		-1.41390009		2.72105356		0.00000000	
		0.00000000		0.00000000		4.76599989	
PRIMCOORD
   5 1	
Mg		0.00000000		0.00000000		0.00000000		0.00000000		0.00000000		0.00000000	
O		0.00000000		1.81403523		1.05614604		0.00000000		-0.00012330		-0.00082603	
O		1.41390009		0.90701719		3.70985413		0.00000000		 0.00012330		 0.00082603	
H		0.00000000		1.81403523		2.05081005		0.00000000		 0.00066667		-0.00041017	
H		1.41390009		0.90701719		2.71519011		0.00000000		-0.00066667		 0.00041017	
