# total energy = -2552.82877063 eV	

CRYSTAL	
PRIMVEC	
		3.29909969		0.00000000		0.00000000	
		-1.64954984		2.72105124		0.00000000	
		0.00000000		0.00000000		4.76599818	
PRIMCOORD
   5 1	
Mg		0.00000000		0.00000000		0.00000000		0.00000000		0.00000000		0.00000000	
O		0.00000000		1.81403471		1.05614606		0.00000000		 0.00021430		 0.00007281	
O		1.64954984		0.90701686		3.70985377		0.00000000		-0.00021430		-0.00007281	
H		0.00000000		1.81403471		2.05080977		0.00000000		-0.00039783		 0.00007595	
H		1.64954984		0.90701686		2.71518973		0.00000000		 0.00039783		-0.00007595	
