# total energy = -2552.85586598 eV	

CRYSTAL	
PRIMVEC	
		3.22054968		0.00000000		0.00000000	
		-1.61027484		2.72105209		0.00000000	
		0.00000000		0.00000000		4.76599808	
PRIMCOORD
   5 1	
Mg		0.00000000		0.00000000		0.00000000		0.00000000		0.00000000		0.00000000	
O		0.00000000		1.81403483		1.05614578		0.00000000		 0.00013786		 0.00001741	
O		1.61027484		0.90701693		3.70985360		0.00000000		-0.00013786		-0.00001741	
H		0.00000000		1.81403483		2.05080965		0.00000000		-0.00020941		-0.00000309	
H		1.61027484		0.90701693		2.71518972		0.00000000		 0.00020941		 0.00000309	
