# total energy = -22468.6764034 eV	

CRYSTAL	
PRIMVEC	
		9.73970004		0.00000000		0.00000000	
		0.00000000		8.91739665		0.00000000	
		-1.43536881		0.00000000		4.79776650	
PRIMCOORD
   40 1	
Mg		-0.35884269		8.09771323		1.19944211		 0.00000007		 0.00036197		 0.00000006	
Mg		-1.07652807		0.81968829		3.59832731		-0.00000007		-0.00036197		-0.00000006	
Mg		4.51100733		3.63901296		1.19944211		 0.00000004		 0.00031366		-0.00000000	
Mg		3.79332195		5.27838758		3.59832731		-0.00000004		-0.00031366		0.00000000	
Ca		-0.35884269		2.68841824		1.19944211		-0.00000009		 0.00005287		 0.00000002	
Ca		-1.07652807		6.22898328		3.59832731		 0.00000009		-0.00005287		-0.00000002	
Ca		4.51100733		7.14711851		1.19944211		-0.00000000		 0.00012782		 0.00000002	
Ca		3.79332195		1.77028204		3.59832731		0.00000000		-0.00012782		-0.00000002	
Si		2.45818828		0.83101264		1.10041566		-0.00022459		-0.00026023		 0.00028569	
Si		5.84614100		8.08638791		3.69735279		 0.00022459		 0.00026023		-0.00028569	
Si		6.56382638		0.83101264		1.29846759		 0.00022450		-0.00026026		-0.00028571	
Si		1.74050290		8.08638791		3.49930086		-0.00022450		 0.00026026		 0.00028571	
Si		7.32803928		5.28971291		1.10041566		 0.00080615		 0.00024005		 0.00064518	
Si		0.97629098		3.62768764		3.69735279		-0.00080615		-0.00024005		-0.00064518	
Si		1.69397636		5.28971291		1.29846759		-0.00080616		 0.00024004		-0.00064517	
Si		6.61035293		3.62768764		3.49930086		 0.00080616		-0.00024004		 0.00064517	
O		0.92170288		0.77492170		0.68061121		 0.00019360		-0.00000858		 0.00024152	
O		7.38262640		8.14247787		4.11715724		-0.00019360		 0.00000858		-0.00024152	
O		8.10031081		0.77492170		1.71827301		-0.00019361		-0.00000868		-0.00024162	
O		0.20401847		8.14247787		3.07949641		 0.00019361		 0.00000868		 0.00024162	
O		5.79155387		5.23362198		0.68061121		-0.00046719		-0.00009206		 0.00006324	
O		2.51277638		3.68377760		4.11715724		 0.00046719		 0.00009206		-0.00006324	
O		3.23046079		5.23362198		1.71827301		 0.00046728		-0.00009222		-0.00006308	
O		5.07386849		3.68377760		3.07949641		-0.00046728		 0.00009222		 0.00006308	
O		3.05934400		2.23104387		1.52453869		-0.00005471		-0.00032400		-0.00007881	
O		5.24498528		6.68635570		3.27322976		 0.00005471		 0.00032400		 0.00007881	
O		5.96267066		2.23104387		0.87434456		 0.00005469		-0.00032407		 0.00007877	
O		2.34165764		6.68635570		3.92342292		-0.00005469		 0.00032407		-0.00007877	
O		7.92919402		6.68974512		1.52453869		-0.00036820		-0.00082448		-0.00024462	
O		0.37513526		2.22765640		3.27322976		 0.00036820		 0.00082448		 0.00024462	
O		1.09282064		6.68974512		0.87434456		 0.00036798		-0.00082442		 0.00024462	
O		7.21150767		2.22765640		3.92342292		-0.00036798		 0.00082442		-0.00024462	
O		1.98719392		0.15551866		4.77584341		 0.00035199		 0.00013397		 0.00013133	
O		6.31713633		8.76188091		0.02192601		-0.00035199		-0.00013397		-0.00013133	
O		5.59944998		0.15551866		2.42081024		-0.00035189		 0.00013409		-0.00013156	
O		2.70487930		8.76188091		2.37695919		 0.00035189		-0.00013409		 0.00013156	
O		6.85704394		4.61421991		4.77584341		 0.00019459		 0.00012928		 0.00009918	
O		1.44728534		4.30318064		0.02192601		-0.00019459		-0.00012928		-0.00009918	
O		0.72959996		4.61421991		2.42081024		-0.00019442		 0.00012940		-0.00009923	
O		7.57472933		4.30318064		2.37695919		 0.00019442		-0.00012940		 0.00009923	
