# total energy = -22469.4706752 eV	

CRYSTAL	
PRIMVEC	
		9.73970004		0.00000000		0.00000000	
		0.00000000		8.91739665		0.00000000	
		-1.43536881		0.00000000		5.30279917	
PRIMCOORD
   40 1	
Mg		-0.35884269		8.09771323		1.32569882		 0.00000001		-0.00021024		-0.00000000	
Mg		-1.07652807		0.81968829		3.97709840		-0.00000001		 0.00021024		0.00000000	
Mg		4.51100733		3.63901296		1.32569882		 0.00000003		-0.00022752		-0.00000004	
Mg		3.79332195		5.27838758		3.97709840		-0.00000003		 0.00022752		 0.00000004	
Ca		-0.35884269		2.68841824		1.32569882		-0.00000004		-0.00071587		-0.00000009	
Ca		-1.07652807		6.22898328		3.97709840		 0.00000004		 0.00071587		 0.00000009	
Ca		4.51100733		7.14711851		1.32569882		-0.00000008		-0.00068805		-0.00000011	
Ca		3.79332195		1.77028204		3.97709840		 0.00000008		 0.00068805		 0.00000011	
Si		2.45818828		0.83101264		1.21624991		 0.00007990		 0.00019954		 0.00007344	
Si		5.84614100		8.08638791		4.08654828		-0.00007990		-0.00019954		-0.00007344	
Si		6.56382638		0.83101264		1.43514870		-0.00008036		 0.00019998		-0.00007377	
Si		1.74050290		8.08638791		3.86764755		 0.00008036		-0.00019998		 0.00007377	
Si		7.32803928		5.28971291		1.21624991		 0.00036882		 0.00038218		 0.00020063	
Si		0.97629098		3.62768764		4.08654828		-0.00036882		-0.00038218		-0.00020063	
Si		1.69397636		5.28971291		1.43514870		-0.00036959		 0.00038294		-0.00020120	
Si		6.61035293		3.62768764		3.86764755		 0.00036959		-0.00038294		 0.00020120	
O		0.92170288		0.77492170		0.75225547		-0.00030789		-0.00002793		-0.00019629	
O		7.38262640		8.14247787		4.55054175		 0.00030789		 0.00002793		 0.00019629	
O		8.10031081		0.77492170		1.89914411		 0.00030819		-0.00002806		 0.00019644	
O		0.20401847		8.14247787		3.40365311		-0.00030819		 0.00002806		-0.00019644	
O		5.79155387		5.23362198		0.75225547		-0.00048797		-0.00005026		-0.00025313	
O		2.51277638		3.68377760		4.55054175		 0.00048797		 0.00005026		 0.00025313	
O		3.23046079		5.23362198		1.89914411		 0.00048855		-0.00005028		 0.00025327	
O		5.07386849		3.68377760		3.40365311		-0.00048855		 0.00005028		-0.00025327	
O		3.05934400		2.23104387		1.68501681		 0.00028701		 0.00076491		-0.00037659	
O		5.24498528		6.68635570		3.61778041		-0.00028701		-0.00076491		 0.00037659	
O		5.96267066		2.23104387		0.96638180		-0.00028686		 0.00076455		 0.00037668	
O		2.34165764		6.68635570		4.33641542		 0.00028686		-0.00076455		-0.00037668	
O		7.92919402		6.68974512		1.68501681		 0.00017560		 0.00058429		-0.00043008	
O		0.37513526		2.22765640		3.61778041		-0.00017560		-0.00058429		 0.00043008	
O		1.09282064		6.68974512		0.96638180		-0.00017531		 0.00058355		 0.00043026	
O		7.21150767		2.22765640		4.33641542		 0.00017531		-0.00058355		-0.00043026	
O		1.98719392		0.15551866		5.27856290		-0.00030846		-0.00042839		 0.00055905	
O		6.31713633		8.76188091		0.02423432		 0.00030846		 0.00042839		-0.00055905	
O		5.59944998		0.15551866		2.67563196		 0.00030834		-0.00042837		-0.00055908	
O		2.70487930		8.76188091		2.62716526		-0.00030834		 0.00042837		 0.00055908	
O		6.85704394		4.61421991		5.27856290		-0.00035016		-0.00043583		 0.00053714	
O		1.44728534		4.30318064		0.02423432		 0.00035016		 0.00043583		-0.00053714	
O		0.72959996		4.61421991		2.67563196		 0.00035012		-0.00043588		-0.00053732	
O		7.57472933		4.30318064		2.62716526		-0.00035012		 0.00043588		 0.00053732	
