# total energy = -22467.2593566 eV	

CRYSTAL	
PRIMVEC	
		9.73970004		0.00000000		0.00000000	
		0.00000000		8.91739665		0.00000000	
		-1.43536881		0.00000000		4.67151077	
PRIMCOORD
   40 1	
Mg		-0.35884269		8.09771323		1.16787769		 0.00000001		 0.00084370		-0.00000004	
Mg		-1.07652807		0.81968829		3.50363405		-0.00000001		-0.00084370		 0.00000004	
Mg		4.51100733		3.63901296		1.16787769		-0.00000001		 0.00082221		-0.00000001	
Mg		3.79332195		5.27838758		3.50363405		 0.00000001		-0.00082221		 0.00000001	
Ca		-0.35884269		2.68841824		1.16787769		-0.00000003		-0.00033668		-0.00000008	
Ca		-1.07652807		6.22898328		3.50363405		 0.00000003		 0.00033668		 0.00000008	
Ca		4.51100733		7.14711851		1.16787769		 0.00000002		-0.00029960		 0.00000005	
Ca		3.79332195		1.77028204		3.50363405		-0.00000002		 0.00029960		-0.00000005	
Si		2.45818828		0.83101264		1.07145758		-0.00030311		-0.00056020		 0.00005756	
Si		5.84614100		8.08638791		3.60005416		 0.00030311		 0.00056020		-0.00005756	
Si		6.56382638		0.83101264		1.26429780		 0.00030367		-0.00056069		-0.00005738	
Si		1.74050290		8.08638791		3.40721394		-0.00030367		 0.00056069		 0.00005738	
Si		7.32803928		5.28971291		1.07145758		 0.00022678		-0.00030453		 0.00022114	
Si		0.97629098		3.62768764		3.60005416		-0.00022678		 0.00030453		-0.00022114	
Si		1.69397636		5.28971291		1.26429780		-0.00022701		-0.00030460		-0.00022117	
Si		6.61035293		3.62768764		3.40721394		 0.00022701		 0.00030460		 0.00022117	
O		0.92170288		0.77492170		0.66270088		 0.00047406		 0.00027112		 0.00004795	
O		7.38262640		8.14247787		4.00881087		-0.00047406		-0.00027112		-0.00004795	
O		8.10031081		0.77492170		1.67305548		-0.00047433		 0.00027118		-0.00004797	
O		0.20401847		8.14247787		2.99845724		 0.00047433		-0.00027118		 0.00004797	
O		5.79155387		5.23362198		0.66270088		 0.00013336		 0.00022377		-0.00003494	
O		2.51277638		3.68377760		4.00881087		-0.00013336		-0.00022377		 0.00003494	
O		3.23046079		5.23362198		1.67305548		-0.00013323		 0.00022383		 0.00003501	
O		5.07386849		3.68377760		2.99845724		 0.00013323		-0.00022383		-0.00003501	
O		3.05934400		2.23104387		1.48441989		-0.00042921		-0.00036398		 0.00045764	
O		5.24498528		6.68635570		3.18709185		 0.00042921		 0.00036398		-0.00045764	
O		5.96267066		2.23104387		0.85133647		 0.00042910		-0.00036360		-0.00045772	
O		2.34165764		6.68635570		3.82017528		-0.00042910		 0.00036360		 0.00045772	
O		7.92919402		6.68974512		1.48441989		-0.00058943		-0.00062907		 0.00036917	
O		0.37513526		2.22765640		3.18709185		 0.00058943		 0.00062907		-0.00036917	
O		1.09282064		6.68974512		0.85133647		 0.00058953		-0.00062908		-0.00036911	
O		7.21150767		2.22765640		3.82017528		-0.00058953		 0.00062908		 0.00036911	
O		1.98719392		0.15551866		4.65016330		 0.00039792		 0.00034742		 0.00021944	
O		6.31713633		8.76188091		0.02134942		-0.00039792		-0.00034742		-0.00021944	
O		5.59944998		0.15551866		2.35710481		-0.00039793		 0.00034745		-0.00021933	
O		2.70487930		8.76188091		2.31440694		 0.00039793		-0.00034745		 0.00021933	
O		6.85704394		4.61421991		4.65016330		 0.00031246		 0.00035341		 0.00021468	
O		1.44728534		4.30318064		0.02134942		-0.00031246		-0.00035341		-0.00021468	
O		0.72959996		4.61421991		2.35710481		-0.00031238		 0.00035346		-0.00021482	
O		7.57472933		4.30318064		2.31440694		 0.00031238		-0.00035346		 0.00021482	
