# total energy = -41261.540486 eV	

CRYSTAL	
PRIMVEC	
		5.69830219		-0.91173089		0.00000000	
		-1.83008086		11.43799816		0.00000000	
		0.00000000		0.00000000		8.25659744	
PRIMCOORD
   56 1	
Mg		0.00000000		0.00000000		0.00000000		0.00000000		0.00000000		0.00000000	
Mg		-0.91503985		5.71900023		0.00000000		0.00000000		0.00000000		0.00000000	
Mg		1.93411009		5.26313594		4.12829988		0.00000000		0.00000000		0.00000000	
Mg		2.84914994		-0.45586429		4.12829988		0.00000000		0.00000000		0.00000000	
Mg		-0.45751993		2.85949983		8.00972821		 0.00000001		0.00000000		 0.00064676	
Mg		-1.37255978		8.57850006		0.24687213		-0.00000001		-0.00000000		-0.00064676	
Mg		1.47659016		8.12263635		3.88142833		-0.00000000		-0.00000000		 0.00064687	
Mg		2.39163001		2.40363612		4.37517316		0.00000000		0.00000000		-0.00064687	
Mg		1.19105729		1.23155718		2.06414994		-0.00022358		-0.00018358		 0.00018757	
Mg		2.67716288		9.29471528		6.19244981		 0.00022358		 0.00018358		-0.00018757	
Mg		3.59220331		3.57571505		2.06414994		 0.00022361		 0.00018358		 0.00018758	
Mg		0.27601686		6.95055684		6.19244981		-0.00022361		-0.00018358		-0.00018758	
Mg		3.12516680		6.49469313		6.19244981		-0.00022358		-0.00018349		 0.00018716	
Mg		0.74305280		4.03157876		2.06414994		 0.00022358		 0.00018349		-0.00018716	
Mg		-0.17198706		9.75057900		6.19244981		 0.00022357		 0.00018349		 0.00018716	
Mg		4.04020723		0.77569289		2.06414994		-0.00022357		-0.00018349		-0.00018716	
Si		-0.21924395		1.37027224		5.09267122		-0.00017611		 0.00003917		 0.00009745	
Si		-1.61083575		10.06772823		3.16392911		 0.00017611		-0.00003917		-0.00009745	
Si		-0.69579590		4.34872684		5.09267122		 0.00017612		-0.00003918		 0.00009742	
Si		-1.13428380		7.08927190		3.16392911		-0.00017612		 0.00003918		-0.00009742	
Si		1.71486614		6.63340819		0.96437077		-0.00017554		 0.00003756		 0.00010055	
Si		2.15335404		3.89286312		7.29222899		 0.00017554		-0.00003756		-0.00010055	
Si		1.23831419		9.61186394		0.96437077		 0.00017554		-0.00003757		 0.00010051	
Si		2.62990599		0.91440795		7.29222899		-0.00017554		 0.00003757		-0.00010051	
O		-0.45751993		2.85949983		1.78838007		 0.00000001		0.00000000		-0.00012758	
O		-1.37255978		8.57850006		6.46822084		-0.00000001		-0.00000000		 0.00012758	
O		1.47659016		8.12263635		5.91667995		-0.00000000		0.00000000		-0.00012711	
O		2.39163001		2.40363612		2.33992096		0.00000000		-0.00000000		 0.00012711	
O		-0.45751993		2.85949983		5.91502893		-0.00000000		-0.00000001		-0.00017644	
O		-1.37255978		8.57850006		2.34157198		0.00000000		 0.00000001		 0.00017644	
O		1.47659016		8.12263635		1.78672905		0.00000000		-0.00000000		-0.00017705	
O		2.39163001		2.40363612		6.46987186		-0.00000000		0.00000000		 0.00017705	
O		-1.81177884		11.32362020		2.11203816		-0.00041845		-0.00047759		-0.00017952	
O		-0.01830087		0.11438027		6.14456217		 0.00041845		 0.00047759		 0.00017952	
O		-0.93334130		5.83337993		2.11203816		 0.00041844		 0.00047757		-0.00017954	
O		-0.89673899		5.60461996		6.14456217		-0.00041844		-0.00047757		 0.00017954	
O		1.95241095		5.14875625		6.24033919		-0.00041843		-0.00047918		-0.00017745	
O		1.91580922		5.37751621		2.01626230		 0.00041843		 0.00047918		 0.00017745	
O		2.83084907		-0.34148402		6.24033919		 0.00041844		 0.00047917		-0.00017749	
O		1.03737110		10.86775591		2.01626230		-0.00041844		-0.00047917		 0.00017749	
O		1.26592101		1.16273778		8.19467585		-0.00075556		-0.00021861		-0.00045079	
O		2.60229917		9.36353411		0.06192390		 0.00075556		 0.00021861		 0.00045079	
O		3.51733902		3.64453388		8.19467585		 0.00075557		 0.00021862		-0.00045078	
O		0.35088115		6.88173801		0.06192390		-0.00075557		-0.00021862		 0.00045078	
O		3.06896981		6.44684415		0.06192390		-0.00037541		 0.00051820		-0.00029430	
O		0.79924978		4.07942832		8.19467585		 0.00037541		-0.00051820		 0.00029430	
O		-0.11579007		9.79842797		0.06192390		 0.00037541		-0.00051820		-0.00029431	
O		3.98401024		0.72784391		8.19467585		-0.00037541		 0.00051820		 0.00029431	
O		3.20003109		6.42587430		4.06637597		-0.00075471		-0.00021877		-0.00045156	
O		0.66818908		4.10039817		4.19022493		 0.00075471		 0.00021877		 0.00045156	
O		-0.24685077		9.81939783		4.06637597		 0.00075472		 0.00021878		-0.00045155	
O		4.11507095		0.70687406		4.19022493		-0.00075472		-0.00021878		 0.00045155	
O		1.13485973		1.18370820		4.19022493		-0.00037576		 0.00051827		-0.00029410	
O		2.73335987		9.34256426		4.06637597		 0.00037576		-0.00051827		 0.00029410	
O		3.64840030		3.62356403		4.19022493		 0.00037577		-0.00051826		-0.00029410	
O		0.21981987		6.90270786		4.06637597		-0.00037577		 0.00051826		 0.00029410	
