# total energy = -41274.3825723 eV	

CRYSTAL	
PRIMVEC	
		5.69830037		0.22793179		0.00000000	
		0.45751740		11.43799779		0.00000000	
		0.00000000		0.00000000		8.25660201	
PRIMCOORD
   56 1	
Mg		0.00000000		0.00000000		0.00000000		0.00000000		0.00000000		0.00000000	
Mg		0.22875984		5.71900003		0.00000000		0.00000000		0.00000000		0.00000000	
Mg		3.07791003		5.83296593		4.12829986		0.00000000		0.00000000		0.00000000	
Mg		2.84915019		0.11396589		4.12829986		0.00000000		0.00000000		0.00000000	
Mg		0.11437992		2.85950030		8.00972818		-0.00000000		 0.00000001		-0.00053893	
Mg		0.34313976		8.57850034		0.24687212		0.00000000		-0.00000001		 0.00053893	
Mg		3.19228995		8.69246623		3.88142832		-0.00000000		-0.00000000		-0.00053892	
Mg		2.96353011		2.97346620		4.37517312		0.00000000		0.00000000		 0.00053892	
Mg		1.48295496		1.51647179		2.06415022		 0.00042891		-0.00049666		-0.00057125	
Mg		4.67286510		10.14946007		6.19245008		-0.00042891		 0.00049666		 0.00057125	
Mg		4.44410526		4.43046004		2.06415022		-0.00042892		 0.00049667		-0.00057126	
Mg		1.71171480		7.23547239		6.19245008		 0.00042892		-0.00049667		 0.00057126	
Mg		4.56086384		7.34943828		6.19245008		 0.00042894		-0.00049668		-0.00057125	
Mg		1.59495507		4.31649414		2.06415022		-0.00042894		 0.00049668		 0.00057125	
Mg		1.82371492		10.03549418		6.19245008		-0.00042895		 0.00049668		-0.00057126	
Mg		4.33210400		1.63043825		2.06415022		 0.00042895		-0.00049668		 0.00057126	
Si		0.05481073		1.37027220		5.09267122		 0.00036979		-0.00023637		-0.00035197	
Si		0.40270895		10.06772844		3.16392907		-0.00036979		 0.00023637		 0.00035197	
Si		0.17394911		4.34872726		5.09267122		-0.00036976		 0.00023640		-0.00035195	
Si		0.28357114		7.08927224		3.16392907		 0.00036976		-0.00023640		 0.00035195	
Si		3.13272133		7.20323813		0.96437079		 0.00036978		-0.00023643		-0.00035187	
Si		3.02309930		4.46269315		7.29222893		-0.00036978		 0.00023643		 0.00035187	
Si		3.25185914		10.18169433		0.96437079		-0.00036975		 0.00023642		-0.00035187	
Si		2.90396092		1.48423810		7.29222893		 0.00036975		-0.00023642		 0.00035187	
O		0.11437992		2.85950030		1.78838001		-0.00000000		0.00000000		 0.00020172	
O		0.34313976		8.57850034		6.46822142		0.00000000		-0.00000000		-0.00020172	
O		3.19228995		8.69246623		5.91667988		 0.00000001		-0.00000000		 0.00020175	
O		2.96353011		2.97346620		2.33992099		-0.00000001		0.00000000		-0.00020175	
O		0.11437992		2.85950030		5.91502890		-0.00000000		-0.00000000		 0.00053959	
O		0.34313976		8.57850034		2.34157197		0.00000000		0.00000000		-0.00053959	
O		3.19228995		8.69246623		1.78672904		0.00000000		 0.00000002		 0.00053955	
O		2.96353011		2.97346620		6.46987240		-0.00000000		-0.00000002		-0.00053955	
O		0.45294485		11.32362015		2.11203825		-0.00009995		 0.00033842		-0.00027542	
O		0.00457483		0.11437992		6.14456205		 0.00009995		-0.00033842		 0.00027542	
O		0.23333524		5.83337996		2.11203825		 0.00009994		-0.00033841		-0.00027541	
O		0.22418501		5.60462011		6.14456205		-0.00009994		 0.00033841		 0.00027541	
O		3.07333520		5.71858601		6.24033925		-0.00009993		 0.00033837		-0.00027538	
O		3.08248486		5.94734642		2.01626219		 0.00009993		-0.00033837		 0.00027538	
O		2.85372502		0.22834581		6.24033925		 0.00009993		-0.00033837		-0.00027538	
O		3.30209504		11.43758604		2.01626219		-0.00009993		 0.00033837		 0.00027538	
O		1.54615231		1.46075887		8.19467639		-0.00016580		 0.00032488		 0.00034382	
O		4.60966832		10.20517299		0.06192390		 0.00016580		-0.00032488		-0.00034382	
O		4.38090791		4.48617296		8.19467639		 0.00016582		-0.00032488		 0.00034383	
O		1.77491215		7.17975890		0.06192390		-0.00016582		 0.00032488		-0.00034383	
O		4.49300099		7.28848330		0.06192390		 0.00064603		-0.00020281		-0.00057025	
O		1.66281907		4.37744913		8.19467639		-0.00064603		 0.00020281		 0.00057025	
O		1.89157891		10.09644916		0.06192390		-0.00064603		 0.00020281		-0.00057026	
O		4.26424114		1.56948326		8.19467639		 0.00064603		-0.00020281		 0.00057026	
O		4.62406233		7.29372536		4.06637596		-0.00016580		 0.00032487		 0.00034381	
O		1.53175829		4.37220706		4.19022491		 0.00016580		-0.00032487		-0.00034381	
O		1.76051814		10.09120710		4.06637596		 0.00016580		-0.00032487		 0.00034383	
O		4.39530192		1.57472476		4.19022491		-0.00016580		 0.00032487		-0.00034383	
O		1.41509096		1.45551680		4.19022491		 0.00064601		-0.00020281		-0.00057024	
O		4.74072910		10.21041506		4.06637596		-0.00064601		 0.00020281		 0.00057024	
O		4.51196926		4.49141502		4.19022491		-0.00064601		 0.00020281		-0.00057026	
O		1.64385080		7.17451740		4.06637596		 0.00064601		-0.00020281		 0.00057026	
