# total energy = -41271.2919693 eV	

CRYSTAL	
PRIMVEC	
		5.69829843		0.45586273		0.00000000	
		0.91504103		11.43800150		0.00000000	
		0.00000000		0.00000000		8.25660041	
PRIMCOORD
   56 1	
Mg		0.00000000		0.00000000		0.00000000		0.00000000		0.00000000		0.00000000	
Mg		0.45751995		5.71900018		0.00000000		0.00000000		0.00000000		0.00000000	
Mg		3.30666973		5.94693212		4.12830021		0.00000000		0.00000000		0.00000000	
Mg		2.84914978		0.22793194		4.12830021		0.00000000		0.00000000		0.00000000	
Mg		0.22876026		2.85950009		8.00972798		0.00000000		-0.00000000		 0.00027178	
Mg		0.68628020		8.57850027		0.24687186		-0.00000000		0.00000000		-0.00027178	
Mg		3.53542999		8.80643221		3.88142777		0.00000000		0.00000000		 0.00027179	
Mg		3.07791004		3.08743203		4.37517321		-0.00000000		-0.00000000		-0.00027179	
Mg		1.54133395		1.57345499		2.06415010		-0.00012427		 0.00025082		-0.00000476	
Mg		5.07200609		10.32040924		6.19244974		 0.00012427		-0.00025082		 0.00000476	
Mg		4.61448614		4.60140906		2.06415010		 0.00012427		-0.00025083		-0.00000477	
Mg		1.99885389		7.29245517		6.19244974		-0.00012427		 0.00025083		 0.00000477	
Mg		4.84800425		7.52038711		6.19244974		-0.00012428		 0.00025082		-0.00000478	
Mg		1.76533578		4.37347713		2.06415010		 0.00012428		-0.00025082		 0.00000478	
Mg		2.22285573		10.09247731		6.19244974		 0.00012428		-0.00025082		-0.00000478	
Mg		4.39048373		1.80138693		2.06415010		-0.00012428		 0.00025082		 0.00000478	
Si		0.10962200		1.37027209		5.09267125		-0.00009814		 0.00000865		 0.00002638	
Si		0.80541790		10.06772827		3.16392916		 0.00009814		-0.00000865		-0.00002638	
Si		0.34789795		4.34872694		5.09267125		 0.00009814		-0.00000866		 0.00002638	
Si		0.56714194		7.08927227		3.16392916		-0.00009814		 0.00000866		-0.00002638	
Si		3.41629173		7.31720421		0.96437105		-0.00009816		 0.00000861		 0.00002650	
Si		3.19704773		4.57665888		7.29222880		 0.00009816		-0.00000861		-0.00002650	
Si		3.65456825		10.29566020		0.96437105		 0.00009817		-0.00000859		 0.00002650	
Si		2.95877178		1.59820403		7.29222880		-0.00009817		 0.00000859		-0.00002650	
O		0.22876026		2.85950009		1.78838016		0.00000000		-0.00000000		-0.00056146	
O		0.68628020		8.57850027		6.46822082		-0.00000000		0.00000000		 0.00056146	
O		3.53542999		8.80643221		5.91667980		-0.00000000		-0.00000000		-0.00056144	
O		3.07791004		3.08743203		2.33992119		0.00000000		0.00000000		 0.00056144	
O		0.22876026		2.85950009		5.91502887		-0.00000000		-0.00000000		-0.00027236	
O		0.68628020		8.57850027		2.34157212		0.00000000		0.00000000		 0.00027236	
O		3.53542999		8.80643221		1.78672924		-0.00000000		-0.00000000		-0.00027237	
O		3.07791004		3.08743203		6.46987175		0.00000000		0.00000000		 0.00027237	
O		0.90589005		11.32361994		2.11203784		-0.00021358		-0.00005028		-0.00015054	
O		0.00914984		0.11437984		6.14456200		 0.00021358		 0.00005028		 0.00015054	
O		0.46666978		5.83338002		2.11203784		 0.00021358		 0.00005028		-0.00015054	
O		0.44837011		5.60461976		6.14456200		-0.00021358		-0.00005028		 0.00015054	
O		3.29751989		5.83255227		6.24033919		-0.00021358		-0.00005032		-0.00015047	
O		3.31582014		6.06131196		2.01626179		 0.00021358		 0.00005032		 0.00015047	
O		2.85830020		0.34231178		6.24033919		 0.00021358		 0.00005032		-0.00015047	
O		3.75503984		11.55155188		2.01626179		-0.00021358		-0.00005032		 0.00015047	
O		1.60219815		1.52036295		8.19467580		-0.00005633		 0.00019349		 0.00010669	
O		5.01114188		10.37350014		0.06192405		 0.00005633		-0.00019349		-0.00010669	
O		4.55362194		4.65449996		8.19467580		 0.00005633		-0.00019349		 0.00010669	
O		2.05971810		7.23936312		0.06192405		-0.00005633		 0.00019349		-0.00010669	
O		4.77780727		7.45680985		0.06192405		 0.00012079		 0.00008984		 0.00015539	
O		1.83553276		4.43705324		8.19467580		-0.00012079		-0.00008984		-0.00015539	
O		2.29305327		10.15605285		0.06192405		-0.00012080		-0.00008984		 0.00015540	
O		4.32028676		1.73781081		8.19467580		 0.00012080		 0.00008984		-0.00015540	
O		4.90886788		7.46729506		4.06637616		-0.00005631		 0.00019348		 0.00010668	
O		1.70447215		4.42656803		4.19022482		 0.00005631		-0.00019348		-0.00010668	
O		2.16199210		10.14556821		4.06637616		 0.00005631		-0.00019349		 0.00010668	
O		4.45134794		1.74829488		4.19022482		-0.00005631		 0.00019349		-0.00010668	
O		1.47113697		1.50987887		4.19022482		 0.00012075		 0.00008985		 0.00015543	
O		5.14220306		10.38398479		4.06637616		-0.00012075		-0.00008985		-0.00015543	
O		4.68468311		4.66498518		4.19022482		-0.00012075		-0.00008983		 0.00015543	
O		1.92865692		7.22887791		4.06637616		 0.00012075		 0.00008983		-0.00015543	
