# total energy = -20636.9770539 eV

CRYSTAL
PRIMVEC
		10.20140705		0.00000000		0.81611052
		0.00000000		5.98348345		0.00000000
		0.38042857		0.00000000		4.75534177
PRIMECORD
   28 1
Mg		0.00000000		0.00000000		0.00000000		0.00000000		0.00000000		0.00000000
Mg		5.29091883		0.00000000		2.78572614		0.00000000		0.00000000		0.00000000
Mg		0.00000000		2.99173968		0.00000000		0.00000000		0.00000000		0.00000000
Mg		5.29091883		2.99173968		2.78572614		0.00000000		0.00000000		0.00000000
Mg		3.20604481		1.49587035		4.94122809		-0.00023308		-0.00000000		 0.00036731
Mg		7.37579286		4.48761003		0.63022522		 0.00023308		0.00000000		-0.00036731
Mg		2.45883369		4.48761003		2.51899836		 0.00036905		0.00000000		-0.00024810
Mg		8.12300296		1.49587035		3.05245495		-0.00036905		0.00000000		 0.00024810
Si		1.12114724		1.49587035		2.10439232		 0.00007261		0.00000000		-0.00002264
Si		9.46069043		4.48761003		3.46706099		-0.00007261		0.00000000		 0.00002264
Si		4.49420073		4.48761003		4.73668927		-0.00008306		0.00000000		-0.00020541
Si		6.08763694		1.49587035		0.83476403		 0.00008306		0.00000000		 0.00020541
O		1.22559035		1.49587035		3.71401770		-0.00002100		0.00000000		-0.00000995
O		9.35624732		4.48761003		1.85743458		 0.00002100		0.00000000		 0.00000995
O		4.26718292		4.48761003		1.59489149		-0.00006249		0.00000000		 0.00001575
O		6.31465372		1.49587035		3.97656080		 0.00006249		0.00000000		-0.00001575
O		4.64312286		1.49587035		1.41612701		 0.00076916		0.00000000		-0.00027204
O		5.93871481		4.48761003		4.15532733		-0.00076916		0.00000000		 0.00027204
O		0.81602148		4.48761003		3.47241133		-0.00037735		0.00000000		 0.00050780
O		9.76581721		1.49587035		2.09904198		 0.00037735		0.00000000		-0.00050780
O		1.76545239		0.19865222		1.45381474		 0.00017432		 0.00011449		 0.00003748
O		8.81638527		5.78482816		4.11763754		-0.00017432		-0.00011449		-0.00003748
O		3.73683236		5.78482816		3.97397773		-0.00019911		 0.00024793		 0.00021187
O		6.84500633		0.19865222		1.59747455		 0.00019911		-0.00024793		-0.00021187
O		8.81638527		3.19039190		4.11763754		-0.00017432		 0.00011449		-0.00003748
O		1.76545239		2.79308746		1.45381474		 0.00017432		-0.00011449		 0.00003748
O		6.84500633		2.79308746		1.59747455		 0.00019911		 0.00024793		-0.00021187
O		3.73683236		3.19039190		3.97397773		-0.00019911		-0.00024793		 0.00021187
