# total energy = -44012.969949 eV

CRYSTAL
PRIMVEC
		9.81799975		0.00000000		0.00000000
		0.00000000		18.49817187		0.00000000
		-1.33411890		0.00000000		5.10350427
PRIMECORD
   82 1
Si		2.35753443		1.55384671		1.51267886		 0.00044885		 0.00019283		 0.00003167
Si		6.12634446		16.94432810		3.59082443		-0.00044885		-0.00019283		-0.00003167
Si		6.12634446		1.55384671		3.59082443		-0.00044885		 0.00019283		-0.00003167
Si		2.35753443		16.94432810		1.51267886		 0.00044885		-0.00019283		 0.00003167
Si		7.26653430		10.80293461		1.51267886		 0.00031284		 0.00017532		-0.00000258
Si		1.21734557		7.69524119		3.59082443		-0.00031284		-0.00017532		 0.00000258
Si		1.21734557		10.80293461		3.59082443		-0.00031284		 0.00017532		 0.00000258
Si		7.26653430		7.69524119		1.51267886		 0.00031284		-0.00017532		-0.00000258
Si		1.76155730		3.16503840		4.10423807		-0.00009742		 0.00030652		-0.00009554
Si		6.72232257		15.33313740		0.99926620		 0.00009742		-0.00030652		 0.00009554
Si		6.72232257		3.16503840		0.99926620		 0.00009742		 0.00030652		 0.00009554
Si		1.76155730		15.33313740		4.10423807		-0.00009742		-0.00030652		-0.00009554
Si		6.67055717		12.41412531		4.10423807		-0.00032547		 0.00014201		-0.00011413
Si		1.81332172		6.08404950		0.99926620		 0.00032547		-0.00014201		 0.00011413
Si		1.81332172		12.41412531		0.99926620		 0.00032547		 0.00014201		 0.00011413
Si		6.67055717		6.08404950		4.10423807		-0.00032547		-0.00014201		-0.00011413
O		2.58846753		2.19203437		3.00290199		-0.00005076		 0.00006094		 0.00006639
O		5.89541038		16.30614143		2.10060228		 0.00005076		-0.00006094		-0.00006639
O		5.89541038		2.19203437		2.10060228		 0.00005076		 0.00006094		-0.00006639
O		2.58846753		16.30614143		3.00290199		-0.00005076		-0.00006094		 0.00006639
O		7.49746838		11.44112129		3.00290199		-0.00003665		 0.00009181		 0.00013162
O		0.98641051		7.05705353		2.10060228		 0.00003665		-0.00009181		-0.00013162
O		0.98641051		11.44112129		2.10060228		 0.00003665		 0.00009181		-0.00013162
O		7.49746838		7.05705353		3.00290199		-0.00003665		-0.00009181		 0.00013162
O		0.80703271		1.59084290		1.10797109		 0.00059135		 0.00042924		-0.00015124
O		7.67684716		16.90733192		3.99553318		-0.00059135		-0.00042924		 0.00015124
O		7.67684716		1.59084290		3.99553318		-0.00059135		 0.00042924		 0.00015124
O		0.80703271		16.90733192		1.10797109		 0.00059135		-0.00042924		-0.00015124
O		5.71603258		10.83993178		1.10797109		 0.00071313		 0.00042357		-0.00012587
O		2.76784729		7.65824500		3.99553318		-0.00071313		-0.00042357		 0.00012587
O		2.76784729		10.83993178		3.99553318		-0.00071313		 0.00042357		 0.00012587
O		5.71603258		7.65824500		1.10797109		 0.00071313		-0.00042357		-0.00012587
O		2.52914030		4.58754776		4.04860928		-0.00021243		 0.00007682		 0.00008349
O		5.95473957		13.91062804		1.05489400		 0.00021243		-0.00007682		-0.00008349
O		5.95473957		4.58754776		1.05489400		 0.00021243		 0.00007682		-0.00008349
O		2.52914030		13.91062804		4.04860928		-0.00021243		-0.00007682		 0.00008349
O		7.43813919		13.83663566		4.04860928		-0.00007057		 0.00022509		 0.00009926
O		1.04573970		4.66154014		1.05489400		 0.00007057		-0.00022509		-0.00009926
O		1.04573970		13.83663566		1.05489400		 0.00007057		 0.00022509		-0.00009926
O		7.43813919		4.66154014		4.04860928		-0.00007057		-0.00022509		 0.00009926
O		2.91896987		0.00000000		1.49073268		-0.00001082		0.00000000		 0.00010471
O		5.56491000		0.00000000		3.61276962		 0.00001082		0.00000000		-0.00010471
O		7.82796876		9.24908790		1.49073268		-0.00003244		-0.00000000		 0.00008978
O		0.65591013		9.24908790		3.61276962		 0.00003244		-0.00000000		-0.00008978
O		0.19753030		3.16688811		3.69493646		-0.00009589		 0.00024516		-0.00006086
O		8.28634957		15.33128769		1.40856682		 0.00009589		-0.00024516		 0.00006086
O		8.28634957		3.16688811		1.40856682		 0.00009589		 0.00024516		 0.00006086
O		0.19753030		15.33128769		3.69493646		-0.00009589		-0.00024516		-0.00006086
O		5.10653018		12.41597601		3.69493646		 0.00003358		 0.00026095		-0.00003664
O		3.37734970		6.08219979		1.40856682		-0.00003358		-0.00026095		 0.00003664
O		3.37734970		12.41597601		1.40856682		-0.00003358		 0.00026095		 0.00003664
O		5.10653018		6.08219979		3.69493646		 0.00003358		-0.00026095		-0.00003664
O		0.12189047		0.00000000		3.65002599		-0.00044686		-0.00000000		-0.00027187
O		8.36198940		0.00000000		1.45347828		 0.00044686		-0.00000000		 0.00027187
O		5.03089034		9.24908790		3.65002599		 0.00009998		0.00000000		-0.00010598
O		3.45298953		9.24908790		1.45347828		-0.00009998		0.00000000		 0.00010598
O		3.26959224		2.48430542		0.50626810		 0.00002265		-0.00009122		-0.00026041
O		5.21428665		16.01387038		4.59723617		-0.00002265		 0.00009122		 0.00026041
O		5.21428665		2.48430542		4.59723617		-0.00002265		-0.00009122		 0.00026041
O		3.26959224		16.01387038		0.50626810		 0.00002265		 0.00009122		-0.00026041
O		8.17859310		11.73339234		0.50626810		 0.00008843		-0.00003612		-0.00029915
O		0.30528678		6.76478248		4.59723617		-0.00008843		 0.00003612		 0.00029915
O		0.30528678		11.73339234		4.59723617		-0.00008843		-0.00003612		 0.00029915
O		8.17859310		6.76478248		0.50626810		 0.00008843		 0.00003612		-0.00029915
Ca		-0.66706043		5.13509270		2.55175213		0.00000000		-0.00017920		0.00000000
Ca		-0.66706043		13.36308212		2.55175213		0.00000000		 0.00017920		0.00000000
Ca		4.24193944		14.38418060		2.55175213		0.00000000		-0.00017008		0.00000000
Ca		4.24193944		4.11399520		2.55175213		0.00000000		 0.00017008		0.00000000
Mg		0.00000000		0.00000000		0.00000000		0.00000000		0.00000000		0.00000000
Mg		4.90899987		9.24908790		0.00000000		0.00000000		0.00000000		0.00000000
Mg		0.00000000		3.26677840		0.00000000		0.00000000		 0.00031163		0.00000000
Mg		0.00000000		15.23139740		0.00000000		0.00000000		-0.00031163		0.00000000
Mg		4.90899987		12.51586434		0.00000000		0.00000000		 0.00022740		0.00000000
Mg		4.90899987		5.98230950		0.00000000		0.00000000		-0.00022740		0.00000000
Mg		-0.66706043		1.62413966		2.55175213		0.00000000		-0.00004012		0.00000000
Mg		-0.66706043		16.87403515		2.55175213		0.00000000		 0.00004012		0.00000000
Mg		4.24193944		10.87322756		2.55175213		0.00000000		-0.00009551		0.00000000
Mg		4.24193944		7.62494824		2.55175213		0.00000000		 0.00009551		0.00000000
H		0.92650893		0.00000000		3.92969760		 0.00092904		0.00000000		-0.00049952
H		7.55736996		0.00000000		1.17380569		-0.00092904		0.00000000		 0.00049952
H		5.83550880		9.24908790		3.92969760		 0.00040539		0.00000000		-0.00065854
H		2.64837009		9.24908790		1.17380569		-0.00040539		0.00000000		 0.00065854
