# total energy = -34529.0486733 eV

CRYSTAL
PRIMVEC
		9.34399986		0.00000000		0.00000000
		0.00000000		5.30799928		0.00000000
		-0.48050585		0.00000000		12.28521069
PRIMECORD
   56 1
Si		1.25702494		2.54146985		4.46088440		 0.00030543		 0.00042353		 0.00020311
Si		7.60647094		2.76653036		7.82432910		-0.00030543		-0.00042353		-0.00020311
Si		7.84672293		2.54146985		1.68172282		-0.00039941		 0.00051461		-0.00009363
Si		1.01677295		2.76653036		10.60348974		 0.00039941		-0.00051461		 0.00009363
Si		5.92902487		5.19546949		4.46088440		 0.00022331		 0.00036157		 0.00018782
Si		2.93447101		0.11252979		7.82432910		-0.00022331		-0.00036157		-0.00018782
Si		3.17472300		5.19546949		1.68172282		-0.00015234		 0.00034277		-0.00018384
Si		5.68877288		0.11252979		10.60348974		 0.00015234		-0.00034277		 0.00018384
Mg		4.43174794		2.65399964		6.14260628		0.00000000		0.00000000		0.00000000
Mg		4.67199993		2.65399964		0.00000000		0.00000000		0.00000000		0.00000000
Mg		-0.24025199		0.00000000		6.14260628		0.00000000		0.00000000		0.00000000
Mg		0.00000000		0.00000000		0.00000000		0.00000000		0.00000000		0.00000000
O		0.46208042		1.13431953		4.59835519		 0.00079796		 0.00013779		-0.00012920
O		8.40141453		4.17367974		7.68685643		-0.00079796		-0.00013779		 0.00012920
O		8.64166745		1.13431953		1.54425109		-0.00075991		 0.00008065		 0.00011524
O		0.22182843		4.17367974		10.74096054		 0.00075991		-0.00008065		-0.00011524
O		5.13408034		3.78832011		4.59835519		 0.00082404		 0.00018772		-0.00012399
O		3.72941553		1.51968010		7.68685643		-0.00082404		-0.00018772		 0.00012399
O		3.96966752		3.78832011		1.54425109		-0.00084676		 0.00021319		 0.00012808
O		4.89382835		1.51968010		10.74096054		 0.00084676		-0.00021319		-0.00012808
O		2.66276525		2.43743375		5.21507320		 0.00022816		-0.00023798		 0.00001228
O		6.20072970		2.87056552		7.07014029		-0.00022816		 0.00023798		-0.00001228
O		6.44098262		2.43743375		0.92753401		-0.00020641		-0.00024094		-0.00001277
O		2.42251326		2.87056552		11.35767854		 0.00020641		 0.00024094		 0.00001277
O		7.33476517		5.09143433		5.21507320		 0.00028181		-0.00023492		 0.00004629
O		1.52873070		0.21656588		7.07014029		-0.00028181		 0.00023492		-0.00004629
O		1.76898269		5.09143433		0.92753401		-0.00032502		-0.00023691		-0.00006606
O		7.09451318		0.21656588		11.35767854		 0.00032502		 0.00023691		 0.00006606
O		0.40556510		3.65933460		5.23104303		-0.00035966		-0.00013804		 0.00010487
O		8.45793078		1.64866468		7.05416860		 0.00035966		 0.00013804		-0.00010487
O		8.69818277		3.65933460		0.91156325		 0.00038118		-0.00012085		-0.00012457
O		0.16531218		1.64866468		11.37364837		-0.00038118		 0.00012085		 0.00012457
O		5.07756409		1.00533496		5.23104303		-0.00035535		-0.00014586		 0.00010422
O		3.78593085		4.30266525		7.05416860		 0.00035535		 0.00014586		-0.00010422
O		4.02618284		1.00533496		0.91156325		 0.00034238		-0.00015726		-0.00009705
O		4.83731210		4.30266525		11.37364837		-0.00034238		 0.00015726		 0.00009705
O		1.45510185		3.11208082		3.09955893		-0.00004464		-0.00025661		 0.00000161
O		7.40839402		2.19592032		9.18565270		 0.00004464		 0.00025661		-0.00000161
O		7.64864601		3.11208082		3.04304735		 0.00006983		-0.00029672		-0.00009853
O		1.21484893		2.19592032		9.24216614		-0.00006983		 0.00029672		 0.00009853
O		6.12710085		0.45808025		3.09955893		-0.00002990		-0.00024518		-0.00001190
O		2.73639410		4.84991996		9.18565270		 0.00002990		 0.00024518		 0.00001190
O		2.97664609		0.45808025		3.04304735		 0.00002210		-0.00024125		 0.00001748
O		5.88684886		4.84991996		9.24216614		-0.00002210		 0.00024125		-0.00001748
Ca		1.59139157		2.54783965		1.09854416		-0.00038790		-0.00016023		 0.00006107
Ca		7.27210244		2.76015962		11.18666746		 0.00038790		 0.00016023		-0.00006107
Ca		7.51235443		2.54783965		5.04406305		 0.00039805		-0.00016256		-0.00005398
Ca		1.35113958		2.76015962		7.24114951		-0.00039805		 0.00016256		 0.00005398
Ca		6.26339149		5.20184023		1.09854416		-0.00041833		-0.00017248		 0.00006282
Ca		2.60010251		0.10615999		11.18666746		 0.00041833		 0.00017248		-0.00006282
Ca		2.84035450		5.20184023		5.04406305		 0.00041046		-0.00016799		-0.00005423
Ca		6.02313950		0.10615999		7.24114951		-0.00041046		 0.00016799		 0.00005423
Ca		-0.12012646		4.93166314		3.07130267		-0.00000421		-0.00024455		 0.00000772
Ca		-0.36037845		0.37633707		9.21390895		 0.00000421		 0.00024455		-0.00000772
Ca		4.55187347		2.27766257		3.07130267		 0.00000457		-0.00023446		-0.00000026
Ca		4.31162148		3.03033671		9.21390895		-0.00000457		 0.00023446		 0.00000026
