# total energy = -34531.7841064 eV

CRYSTAL
PRIMVEC
		9.34399986		0.00000000		0.00000000
		0.00000000		5.30799928		0.00000000
		-0.48050585		0.00000000		12.94927942
PRIMECORD
   56 1
Si		1.25702494		2.54146985		4.70201192		 0.00030135		 0.00033717		-0.00011794
Si		7.60647094		2.76653036		8.24726563		-0.00030135		-0.00033717		 0.00011794
Si		7.84672293		2.54146985		1.77262685		-0.00024151		-0.00001957		-0.00081107
Si		1.01677295		2.76653036		11.17665069		 0.00024151		 0.00001957		 0.00081107
Si		5.92902487		5.19546949		4.70201192		 0.00029969		 0.00033610		-0.00011593
Si		2.93447101		0.11252979		8.24726563		-0.00029969		-0.00033610		 0.00011593
Si		3.17472300		5.19546949		1.77262685		-0.00024345		-0.00001823		-0.00080885
Si		5.68877288		0.11252979		11.17665069		 0.00024345		 0.00001823		 0.00080885
Mg		4.43174794		2.65399964		6.47463877		0.00000000		0.00000000		0.00000000
Mg		4.67199993		2.65399964		0.00000000		0.00000000		0.00000000		0.00000000
Mg		-0.24025199		0.00000000		6.47463877		0.00000000		0.00000000		0.00000000
Mg		0.00000000		0.00000000		0.00000000		0.00000000		0.00000000		0.00000000
O		0.46208042		1.13431953		4.84691493		 0.00027268		 0.00025535		 0.00041498
O		8.40141453		4.17367974		8.10236261		-0.00027268		-0.00025535		-0.00041498
O		8.64166745		1.13431953		1.62772384		-0.00034472		 0.00039973		-0.00029403
O		0.22182843		4.17367974		11.32155371		 0.00034472		-0.00039973		 0.00029403
O		5.13408034		3.78832011		4.84691493		 0.00027336		 0.00025628		 0.00041457
O		3.72941553		1.51968010		8.10236261		-0.00027336		-0.00025628		-0.00041457
O		3.96966752		3.78832011		1.62772384		-0.00034397		 0.00039898		-0.00029435
O		4.89382835		1.51968010		11.32155371		 0.00034397		-0.00039898		 0.00029435
O		2.66276525		2.43743375		5.49696766		 0.00070109		 0.00000128		-0.00030221
O		6.20072970		2.87056552		7.45230989		-0.00070109		-0.00000128		 0.00030221
O		6.44098262		2.43743375		0.97767111		-0.00052083		 0.00002616		 0.00046637
O		2.42251326		2.87056552		11.97160643		 0.00052083		-0.00002616		-0.00046637
O		7.33476517		5.09143433		5.49696766		 0.00070179		 0.00000124		-0.00030217
O		1.52873070		0.21656588		7.45230989		-0.00070179		-0.00000124		 0.00030217
O		1.76898269		5.09143433		0.97767111		-0.00052055		 0.00002615		 0.00046617
O		7.09451318		0.21656588		11.97160643		 0.00052055		-0.00002615		-0.00046617
O		0.40556510		3.65933460		5.51380274		-0.00077245		-0.00035862		 0.00004181
O		8.45793078		1.64866468		7.43547574		 0.00077245		 0.00035862		-0.00004181
O		8.69818277		3.65933460		0.96083603		 0.00070159		-0.00043286		 0.00008491
O		0.16531218		1.64866468		11.98844058		-0.00070159		 0.00043286		-0.00008491
O		5.07756409		1.00533496		5.51380274		-0.00077194		-0.00035902		 0.00004147
O		3.78593085		4.30266525		7.43547574		 0.00077194		 0.00035902		-0.00004147
O		4.02618284		1.00533496		0.96083603		 0.00070214		-0.00043267		 0.00008453
O		4.83731210		4.30266525		11.98844058		-0.00070214		 0.00043267		-0.00008453
O		1.45510185		3.11208082		3.26710339		 0.00004540		 0.00052944		 0.00059610
O		7.40839402		2.19592032		9.68217510		-0.00004540		-0.00052944		-0.00059610
O		7.64864601		3.11208082		3.20753632		-0.00013436		 0.00074234		 0.00012123
O		1.21484893		2.19592032		9.74174216		 0.00013436		-0.00074234		-0.00012123
O		6.12710085		0.45808025		3.26710339		 0.00004567		 0.00052996		 0.00059456
O		2.73639410		4.84991996		9.68217510		-0.00004567		-0.00052996		-0.00059456
O		2.97664609		0.45808025		3.20753632		-0.00013386		 0.00074191		 0.00011963
O		5.88684886		4.84991996		9.74174216		 0.00013386		-0.00074191		-0.00011963
Ca		1.59139157		2.54783965		1.15792435		-0.00015433		 0.00021447		 0.00009673
Ca		7.27210244		2.76015962		11.79135320		 0.00015433		-0.00021447		-0.00009673
Ca		7.51235443		2.54783965		5.31671536		 0.00015203		 0.00021432		-0.00024891
Ca		1.35113958		2.76015962		7.63256406		-0.00015203		-0.00021432		 0.00024891
Ca		6.26339149		5.20184023		1.15792435		-0.00015369		 0.00021450		 0.00009676
Ca		2.60010251		0.10615999		11.79135320		 0.00015369		-0.00021450		-0.00009676
Ca		2.84035450		5.20184023		5.31671536		 0.00015228		 0.00021422		-0.00024876
Ca		6.02313950		0.10615999		7.63256406		-0.00015228		-0.00021422		 0.00024876
Ca		-0.12012646		4.93166314		3.23731939		 0.00000210		-0.00061131		-0.00008504
Ca		-0.36037845		0.37633707		9.71195816		-0.00000210		 0.00061131		 0.00008504
Ca		4.55187347		2.27766257		3.23731939		 0.00000188		-0.00061150		-0.00008460
Ca		4.31162148		3.03033671		9.71195816		-0.00000188		 0.00061150		 0.00008460
