# total energy = -34532.0656923 eV

CRYSTAL
PRIMVEC
		9.34399986		0.00000000		0.00000000
		0.00000000		5.30799928		0.00000000
		-0.48050585		0.00000000		13.61333880
PRIMECORD
   56 1
Si		1.25702494		2.54146985		4.94314131		 0.00021223		 0.00033495		-0.00074347
Si		7.60647094		2.76653036		8.67020216		-0.00021223		-0.00033495		 0.00074347
Si		7.84672293		2.54146985		1.86353089		-0.00020307		 0.00033804		 0.00076830
Si		1.01677295		2.76653036		11.74981258		 0.00020307		-0.00033804		-0.00076830
Si		5.92902487		5.19546949		4.94314131		 0.00021110		 0.00033462		-0.00074409
Si		2.93447101		0.11252979		8.67020216		-0.00021110		-0.00033462		 0.00074409
Si		3.17472300		5.19546949		1.86353089		-0.00020237		 0.00033904		 0.00076809
Si		5.68877288		0.11252979		11.74981258		 0.00020237		-0.00033904		-0.00076809
Mg		4.43174794		2.65399964		6.80667220		0.00000000		0.00000000		0.00000000
Mg		4.67199993		2.65399964		0.00000000		0.00000000		0.00000000		0.00000000
Mg		-0.24025199		0.00000000		6.80667220		0.00000000		0.00000000		0.00000000
Mg		0.00000000		0.00000000		0.00000000		0.00000000		0.00000000		0.00000000
O		0.46208042		1.13431953		5.09547467		 0.00011204		-0.00022867		 0.00032935
O		8.40141453		4.17367974		8.51786880		-0.00011204		 0.00022867		-0.00032935
O		8.64166745		1.13431953		1.71119659		-0.00011083		-0.00023607		-0.00034089
O		0.22182843		4.17367974		11.90214594		 0.00011083		 0.00023607		 0.00034089
O		5.13408034		3.78832011		5.09547467		 0.00011212		-0.00022893		 0.00033017
O		3.72941553		1.51968010		8.51786880		-0.00011212		 0.00022893		-0.00033017
O		3.96966752		3.78832011		1.71119659		-0.00011111		-0.00023599		-0.00034141
O		4.89382835		1.51968010		11.90214594		 0.00011111		 0.00023599		 0.00034141
O		2.66276525		2.43743375		5.77886399		-0.00002972		-0.00017146		-0.00050564
O		6.20072970		2.87056552		7.83447855		 0.00002972		 0.00017146		 0.00050564
O		6.44098262		2.43743375		1.02780821		 0.00003806		-0.00016840		 0.00051128
O		2.42251326		2.87056552		12.58553619		-0.00003806		 0.00016840		-0.00051128
O		7.33476517		5.09143433		5.77886399		-0.00003186		-0.00017106		-0.00050642
O		1.52873070		0.21656588		7.83447855		 0.00003186		 0.00017106		 0.00050642
O		1.76898269		5.09143433		1.02780821		 0.00003677		-0.00016879		 0.00051153
O		7.09451318		0.21656588		12.58553619		-0.00003677		 0.00016879		-0.00051153
O		0.40556510		3.65933460		5.79656152		-0.00029204		-0.00042552		 0.00033782
O		8.45793078		1.64866468		7.81678195		 0.00029204		 0.00042552		-0.00033782
O		8.69818277		3.65933460		1.01010974		 0.00029059		-0.00042178		-0.00034598
O		0.16531218		1.64866468		12.60323279		-0.00029059		 0.00042178		 0.00034598
O		5.07756409		1.00533496		5.79656152		-0.00029190		-0.00042621		 0.00033871
O		3.78593085		4.30266525		7.81678195		 0.00029190		 0.00042621		-0.00033871
O		4.02618284		1.00533496		1.01010974		 0.00029109		-0.00042095		-0.00034693
O		4.83731210		4.30266525		12.60323279		-0.00029109		 0.00042095		 0.00034693
O		1.45510185		3.11208082		3.43464598		-0.00054645		 0.00012945		 0.00078247
O		7.40839402		2.19592032		10.17869656		 0.00054645		-0.00012945		-0.00078247
O		7.64864601		3.11208082		3.37202529		 0.00053931		 0.00012713		-0.00079865
O		1.21484893		2.19592032		10.24131911		-0.00053931		-0.00012713		 0.00079865
O		6.12710085		0.45808025		3.43464598		-0.00054635		 0.00012978		 0.00078164
O		2.73639410		4.84991996		10.17869656		 0.00054635		-0.00012978		-0.00078164
O		2.97664609		0.45808025		3.37202529		 0.00053694		 0.00012625		-0.00079846
O		5.88684886		4.84991996		10.24131911		-0.00053694		-0.00012625		 0.00079846
Ca		1.59139157		2.54783965		1.21730453		-0.00014564		-0.00061706		 0.00079723
Ca		7.27210244		2.76015962		12.39603800		 0.00014564		 0.00061706		-0.00079723
Ca		7.51235443		2.54783965		5.58936674		 0.00014172		-0.00062027		-0.00079499
Ca		1.35113958		2.76015962		8.02397673		-0.00014172		 0.00062027		 0.00079499
Ca		6.26339149		5.20184023		1.21730453		-0.00014463		-0.00061681		 0.00079921
Ca		2.60010251		0.10615999		12.39603800		 0.00014463		 0.00061681		-0.00079921
Ca		2.84035450		5.20184023		5.58936674		 0.00014412		-0.00062021		-0.00079391
Ca		6.02313950		0.10615999		8.02397673		-0.00014412		 0.00062021		 0.00079391
Ca		-0.12012646		4.93166314		3.40333610		-0.00000396		 0.00050591		-0.00000039
Ca		-0.36037845		0.37633707		10.21000830		 0.00000396		-0.00050591		 0.00000039
Ca		4.55187347		2.27766257		3.40333610		-0.00000038		 0.00050599		 0.00000264
Ca		4.31162148		3.03033671		10.21000830		 0.00000038		-0.00050599		-0.00000264
