# total energy = -34529.9162589 eV

CRYSTAL
PRIMVEC
		9.34399986		0.00000000		0.00000000
		0.00000000		5.30799928		0.00000000
		-0.48050585		0.00000000		14.60943721
PRIMECORD
   56 1
Si		1.25702494		2.54146985		5.30483353		-0.00003522		 0.00008264		 0.00013590
Si		7.60647094		2.76653036		9.30460649		 0.00003522		-0.00008264		-0.00013590
Si		7.84672293		2.54146985		1.99988601		 0.00003487		 0.00008257		-0.00013642
Si		1.01677295		2.76653036		12.60955494		-0.00003487		-0.00008257		 0.00013642
Si		5.92902487		5.19546949		5.30483353		-0.00003485		 0.00008249		 0.00013631
Si		2.93447101		0.11252979		9.30460649		 0.00003485		-0.00008249		-0.00013631
Si		3.17472300		5.19546949		1.99988601		 0.00003524		 0.00008271		-0.00013601
Si		5.68877288		0.11252979		12.60955494		-0.00003524		-0.00008271		 0.00013601
Mg		4.43174794		2.65399964		7.30472048		0.00000000		0.00000000		0.00000000
Mg		4.67199993		2.65399964		0.00000000		0.00000000		0.00000000		0.00000000
Mg		-0.24025199		0.00000000		7.30472048		0.00000000		0.00000000		0.00000000
Mg		0.00000000		0.00000000		0.00000000		0.00000000		0.00000000		0.00000000
O		0.46208042		1.13431953		5.46831428		-0.00034921		 0.00018347		-0.00045636
O		8.40141453		4.17367974		9.14112760		 0.00034921		-0.00018347		 0.00045636
O		8.64166745		1.13431953		1.83640713		 0.00034844		 0.00018334		 0.00045577
O		0.22182843		4.17367974		12.77303476		-0.00034844		-0.00018334		-0.00045577
O		5.13408034		3.78832011		5.46831428		-0.00034870		 0.00018324		-0.00045589
O		3.72941553		1.51968010		9.14112760		 0.00034870		-0.00018324		 0.00045589
O		3.96966752		3.78832011		1.83640713		 0.00034940		 0.00018355		 0.00045599
O		4.89382835		1.51968010		12.77303476		-0.00034940		-0.00018355		-0.00045599
O		2.66276525		2.43743375		6.20170801		-0.00026104		 0.00008883		 0.00032022
O		6.20072970		2.87056552		8.40773387		 0.00026104		-0.00008883		-0.00032022
O		6.44098262		2.43743375		1.10301340		 0.00026074		 0.00008868		-0.00032098
O		2.42251326		2.87056552		13.50642849		-0.00026074		-0.00008868		 0.00032098
O		7.33476517		5.09143433		6.20170801		-0.00026075		 0.00008888		 0.00032081
O		1.52873070		0.21656588		8.40773387		 0.00026075		-0.00008888		-0.00032081
O		1.76898269		5.09143433		1.10301340		 0.00026099		 0.00008889		-0.00032015
O		7.09451318		0.21656588		13.50642849		-0.00026099		-0.00008889		 0.00032015
O		0.40556510		3.65933460		6.22069969		 0.00060312		 0.00085533		-0.00006478
O		8.45793078		1.64866468		8.38874219		-0.00060312		-0.00085533		 0.00006478
O		8.69818277		3.65933460		1.08402078		-0.00060298		 0.00085488		 0.00006456
O		0.16531218		1.64866468		13.52542110		 0.00060298		-0.00085488		-0.00006456
O		5.07756409		1.00533496		6.22069969		 0.00060309		 0.00085480		-0.00006455
O		3.78593085		4.30266525		8.38874219		-0.00060309		-0.00085480		 0.00006455
O		4.02618284		1.00533496		1.08402078		-0.00060268		 0.00085497		 0.00006494
O		4.83731210		4.30266525		13.52542110		 0.00060268		-0.00085497		-0.00006494
O		1.45510185		3.11208082		3.68596220		-0.00027888		 0.00010734		-0.00010497
O		7.40839402		2.19592032		10.92347876		 0.00027888		-0.00010734		 0.00010497
O		7.64864601		3.11208082		3.61875921		 0.00027811		 0.00010762		 0.00010416
O		1.21484893		2.19592032		10.99068267		-0.00027811		-0.00010762		-0.00010416
O		6.12710085		0.45808025		3.68596220		-0.00027800		 0.00010748		-0.00010414
O		2.73639410		4.84991996		10.92347876		 0.00027800		-0.00010748		 0.00010414
O		2.97664609		0.45808025		3.61875921		 0.00027871		 0.00010743		 0.00010483
O		5.88684886		4.84991996		10.99068267		-0.00027871		-0.00010743		-0.00010483
Ca		1.59139157		2.54783965		1.30637621		 0.00036298		 0.00077821		 0.00025902
Ca		7.27210244		2.76015962		13.30306474		-0.00036298		-0.00077821		-0.00025902
Ca		7.51235443		2.54783965		5.99834520		-0.00036309		 0.00077794		-0.00025894
Ca		1.35113958		2.76015962		8.61109669		 0.00036309		-0.00077794		 0.00025894
Ca		6.26339149		5.20184023		1.30637621		 0.00036269		 0.00077806		 0.00025891
Ca		2.60010251		0.10615999		13.30306474		-0.00036269		-0.00077806		-0.00025891
Ca		2.84035450		5.20184023		5.99834520		-0.00036310		 0.00077827		-0.00025899
Ca		6.02313950		0.10615999		8.61109669		 0.00036310		-0.00077827		 0.00025899
Ca		-0.12012646		4.93166314		3.65236024		-0.00000012		-0.00045489		 0.00000020
Ca		-0.36037845		0.37633707		10.95708071		 0.00000012		 0.00045489		-0.00000020
Ca		4.55187347		2.27766257		3.65236024		 0.00000009		-0.00045491		 0.00000032
Ca		4.31162148		3.03033671		10.95708071		-0.00000009		 0.00045491		-0.00000032
