# total energy = -34530.7362991 eV

CRYSTAL
PRIMVEC
		9.34399986		0.00000000		0.00000000
		0.00000000		5.30799928		0.00000000
		-0.48050585		0.00000000		12.61724038
PRIMECORD
   56 1
Si		1.25702494		2.54146985		4.58144816		-0.00018105		-0.00020431		 0.00088164
Si		7.60647094		2.76653036		8.03579689		 0.00018105		 0.00020431		-0.00088164
Si		7.84672293		2.54146985		1.72717483		 0.00017030		-0.00008535		-0.00060230
Si		1.01677295		2.76653036		10.89007115		-0.00017030		 0.00008535		 0.00060230
Si		5.92902487		5.19546949		4.58144816		-0.00020640		-0.00022074		 0.00090037
Si		2.93447101		0.11252979		8.03579689		 0.00020640		 0.00022074		-0.00090037
Si		3.17472300		5.19546949		1.72717483		 0.00016005		-0.00007446		-0.00058280
Si		5.68877288		0.11252979		10.89007115		-0.00016005		 0.00007446		 0.00058280
Mg		4.43174794		2.65399964		6.30862299		0.00000000		0.00000000		0.00000000
Mg		4.67199993		2.65399964		0.00000000		0.00000000		0.00000000		0.00000000
Mg		-0.24025199		0.00000000		6.30862299		0.00000000		0.00000000		0.00000000
Mg		0.00000000		0.00000000		0.00000000		0.00000000		0.00000000		0.00000000
O		0.46208042		1.13431953		4.72263506		 0.00011143		 0.00001254		 0.00051096
O		8.40141453		4.17367974		7.89460999		-0.00011143		-0.00001254		-0.00051096
O		8.64166745		1.13431953		1.58598793		-0.00009136		-0.00002929		-0.00054696
O		0.22182843		4.17367974		11.03125806		 0.00009136		 0.00002929		 0.00054696
O		5.13408034		3.78832011		4.72263506		 0.00012103		 0.00002531		 0.00050790
O		3.72941553		1.51968010		7.89460999		-0.00012103		-0.00002531		-0.00050790
O		3.96966752		3.78832011		1.58598793		-0.00008642		-0.00003574		-0.00054924
O		4.89382835		1.51968010		11.03125806		 0.00008642		 0.00003574		 0.00054924
O		2.66276525		2.43743375		5.35601996		 0.00040873		 0.00040136		-0.00033642
O		6.20072970		2.87056552		7.26122509		-0.00040873		-0.00040136		 0.00033642
O		6.44098262		2.43743375		0.95260210		-0.00047473		 0.00039270		 0.00028047
O		2.42251326		2.87056552		11.66464296		 0.00047473		-0.00039270		-0.00028047
O		7.33476517		5.09143433		5.35601996		 0.00041902		 0.00040150		-0.00033335
O		1.52873070		0.21656588		7.26122509		-0.00041902		-0.00040150		 0.00033335
O		1.76898269		5.09143433		0.95260210		-0.00047398		 0.00039257		 0.00027870
O		7.09451318		0.21656588		11.66464296		 0.00047398		-0.00039257		-0.00027870
O		0.40556510		3.65933460		5.37242335		-0.00048601		-0.00002489		 0.00029793
O		8.45793078		1.64866468		7.24482263		 0.00048601		 0.00002489		-0.00029793
O		8.69818277		3.65933460		0.93619964		 0.00050168		-0.00000776		-0.00033294
O		0.16531218		1.64866468		11.68104448		-0.00050168		 0.00000776		 0.00033294
O		5.07756409		1.00533496		5.37242335		-0.00048046		-0.00002956		 0.00029377
O		3.78593085		4.30266525		7.24482263		 0.00048046		 0.00002956		-0.00029377
O		4.02618284		1.00533496		0.93619964		 0.00050460		-0.00000560		-0.00033560
O		4.83731210		4.30266525		11.68104448		-0.00050460		 0.00000560		 0.00033560
O		1.45510185		3.11208082		3.18333069		 0.00044034		 0.00086654		-0.00032464
O		7.40839402		2.19592032		9.43391343		-0.00044034		-0.00086654		 0.00032464
O		7.64864601		3.11208082		3.12529230		-0.00040875		 0.00079588		 0.00010260
O		1.21484893		2.19592032		9.49195368		 0.00040875		-0.00079588		-0.00010260
O		6.12710085		0.45808025		3.18333069		 0.00044564		 0.00087303		-0.00034179
O		2.73639410		4.84991996		9.43391343		-0.00044564		-0.00087303		 0.00034179
O		2.97664609		0.45808025		3.12529230		-0.00040546		 0.00079026		 0.00008753
O		5.88684886		4.84991996		9.49195368		 0.00040546		-0.00079026		-0.00008753
Ca		1.59139157		2.54783965		1.12823379		 0.00071107		 0.00025645		 0.00013311
Ca		7.27210244		2.76015962		11.48901127		-0.00071107		-0.00025645		-0.00013311
Ca		7.51235443		2.54783965		5.18038921		-0.00071119		 0.00025607		-0.00008247
Ca		1.35113958		2.76015962		7.43685678		 0.00071119		-0.00025607		 0.00008247
Ca		6.26339149		5.20184023		1.12823379		 0.00071221		 0.00025690		 0.00013368
Ca		2.60010251		0.10615999		11.48901127		-0.00071221		-0.00025690		-0.00013368
Ca		2.84035450		5.20184023		5.18038921		-0.00070756		 0.00025507		-0.00008246
Ca		6.02313950		0.10615999		7.43685678		 0.00070756		-0.00025507		 0.00008246
Ca		-0.12012646		4.93166314		3.15431103		 0.00000046		-0.00082345		 0.00002550
Ca		-0.36037845		0.37633707		9.46293402		-0.00000046		 0.00082345		-0.00002550
Ca		4.55187347		2.27766257		3.15431103		-0.00000214		-0.00082319		 0.00002756
Ca		4.31162148		3.03033671		9.46293402		 0.00000214		 0.00082319		-0.00002756
