# total energy = -10312.9397626 eV

CRYSTAL
PRIMVEC
		3.50999882		0.00000000		-0.28079920
		0.00000000		3.50999882		0.00000000
		-0.83599956		0.00000000		10.44999799
PRIMECORD
   14 1
Si		0.00000000		0.00000000		0.00000000		0.00000000		0.00000000		0.00000000
Si		1.33699998		1.75499976		5.08459975		0.00000000		0.00000000		0.00000000
Mg		-0.31266407		0.00000000		3.90829987		-0.00008137		0.00000000		-0.00003885
Mg		-0.52333584		0.00000000		6.54169953		 0.00008137		0.00000000		 0.00003885
Mg		1.02433591		1.75499976		8.99289961		-0.00041528		0.00000000		-0.00002213
Mg		1.64966406		1.75499976		1.17629988		 0.00041528		0.00000000		 0.00002213
O		0.00000000		1.75499976		0.00000000		0.00000000		0.00000000		0.00000000
O		1.75499976		0.00000000		-0.14039995		0.00000000		0.00000000		0.00000000
O		1.33699998		0.00000000		5.08459975		0.00000000		0.00000000		0.00000000
O		-0.41800013		1.75499976		5.22499970		0.00000000		0.00000000		0.00000000
O		-0.13768897		0.00000000		1.72111477		-0.00012544		0.00000000		-0.00032556
O		-0.69831094		0.00000000		8.72888463		 0.00012544		0.00000000		 0.00032556
O		1.19931101		1.75499976		6.80571451		 0.00000571		0.00000000		-0.00032435
O		1.47468895		1.75499976		3.36348498		-0.00000571		0.00000000		 0.00032435
