# total energy = -10309.9101956 eV

CRYSTAL
PRIMVEC
		3.51000135		0.00000000		0.56160178
		0.00000000		3.51000135		0.00000000
		1.67200151		0.00000000		10.44999966
PRIMECORD
   14 1
Si		0.00000000		0.00000000		0.00000000		0.00000000		0.00000000		0.00000000
Si		2.59100001		1.75499996		5.50580001		0.00000000		0.00000000		0.00000000
Mg		0.62532802		0.00000000		3.90829993		-0.00037038		0.00000000		 0.00048358
Mg		1.04667207		0.00000000		6.54170009		 0.00037038		0.00000000		-0.00048358
Mg		3.21632802		1.75499996		9.41409994		-0.00059268		0.00000000		 0.00046629
Mg		1.96567199		1.75499996		1.59750008		 0.00059268		0.00000000		-0.00046629
O		0.00000000		1.75499996		0.00000000		0.00000000		0.00000000		0.00000000
O		1.75499996		0.00000000		0.28080018		0.00000000		0.00000000		0.00000000
O		2.59100001		0.00000000		5.50580001		0.00000000		0.00000000		0.00000000
O		0.83600004		1.75499996		5.22500019		0.00000000		0.00000000		0.00000000
O		0.27537792		0.00000000		1.72111496		 0.00017688		0.00000000		-0.00024272
O		1.39662216		0.00000000		8.72888506		-0.00017688		0.00000000		 0.00024272
O		2.86637793		1.75499996		7.22691497		 0.00017498		0.00000000		-0.00023584
O		2.31562208		1.75499996		3.78468505		-0.00017498		-0.00000000		 0.00023584
