# total energy = -10313.893542 eV

CRYSTAL
PRIMVEC
		3.51000011		0.00000000		0.14039986
		0.00000000		3.51000011		0.00000000
		0.41799942		0.00000000		10.44999967
PRIMECORD
   14 1
Si		0.00000000		0.00000000		0.00000000		0.00000000		0.00000000		0.00000000
Si		1.96400012		1.75500006		5.29520012		0.00000000		0.00000000		0.00000000
Mg		0.15633185		0.00000000		3.90830007		 0.00019539		0.00000000		 0.00003786
Mg		0.26166793		0.00000000		6.54169995		-0.00019539		0.00000000		-0.00003786
Mg		2.12033197		1.75500006		9.20349983		-0.00010398		0.00000000		 0.00003735
Mg		1.80766792		1.75500006		1.38690005		 0.00010398		0.00000000		-0.00003735
O		0.00000000		1.75500006		0.00000000		0.00000000		0.00000000		0.00000000
O		1.75500006		0.00000000		0.07019993		0.00000000		0.00000000		0.00000000
O		1.96400012		0.00000000		5.29520012		0.00000000		0.00000000		0.00000000
O		0.20900006		1.75500006		5.22499983		0.00000000		0.00000000		0.00000000
O		0.06884504		0.00000000		1.72111482		-0.00014970		0.00000000		 0.00001434
O		0.34915508		0.00000000		8.72888485		 0.00014970		0.00000000		-0.00001434
O		2.03284481		1.75500006		7.01631494		-0.00009243		0.00000000		 0.00003066
O		1.89515508		1.75500006		3.57408495		 0.00009243		0.00000000		-0.00003066
