# total energy = -10309.9101952 eV

CRYSTAL
PRIMVEC
		3.51000135		0.00000000		-0.56160178
		0.00000000		3.51000135		0.00000000
		-1.67200151		0.00000000		10.44999966
PRIMECORD
   14 1
Si		0.00000000		0.00000000		0.00000000		0.00000000		0.00000000		0.00000000
Si		0.91899992		1.75499996		4.94420001		0.00000000		0.00000000		0.00000000
Mg		-0.62532802		0.00000000		3.90829993		 0.00037238		0.00000000		 0.00047905
Mg		-1.04667207		0.00000000		6.54170009		-0.00037238		0.00000000		-0.00047905
Mg		0.29367190		1.75499996		8.85249994		 0.00059524		0.00000000		 0.00046229
Mg		1.54432794		1.75499996		1.03590008		-0.00059524		0.00000000		-0.00046229
O		0.00000000		1.75499996		0.00000000		0.00000000		0.00000000		0.00000000
O		1.75499996		0.00000000		-0.28080018		0.00000000		0.00000000		0.00000000
O		0.91899992		0.00000000		4.94420001		0.00000000		0.00000000		0.00000000
O		-0.83600004		1.75499996		5.22500019		0.00000000		0.00000000		0.00000000
O		-0.27537792		0.00000000		1.72111496		-0.00017961		0.00000000		-0.00023097
O		-1.39662216		0.00000000		8.72888506		 0.00017961		0.00000000		 0.00023097
O		0.64362199		1.75499996		6.66531497		-0.00017797		0.00000000		-0.00022383
O		1.19437784		1.75499996		3.22308505		 0.00017797		0.00000000		 0.00022383
