# total energy = -10313.893542 eV

CRYSTAL
PRIMVEC
		3.51000011		0.00000000		-0.14039986
		0.00000000		3.51000011		0.00000000
		-0.41799942		0.00000000		10.44999967
PRIMECORD
   14 1
Si		0.00000000		0.00000000		0.00000000		0.00000000		0.00000000		0.00000000
Si		1.54599999		1.75500006		5.15479990		0.00000000		0.00000000		0.00000000
Mg		-0.15633185		0.00000000		3.90830007		-0.00019539		-0.00000000		 0.00003791
Mg		-0.26166793		0.00000000		6.54169995		 0.00019539		-0.00000000		-0.00003791
Mg		1.38966814		1.75500006		9.06309997		 0.00010399		0.00000000		 0.00003731
Mg		1.70233184		1.75500006		1.24649984		-0.00010399		0.00000000		-0.00003731
O		0.00000000		1.75500006		0.00000000		0.00000000		0.00000000		0.00000000
O		1.75500006		0.00000000		-0.07019993		0.00000000		0.00000000		0.00000000
O		1.54599999		0.00000000		5.15479990		0.00000000		0.00000000		0.00000000
O		-0.20900006		1.75500006		5.22499983		0.00000000		0.00000000		0.00000000
O		-0.06884504		0.00000000		1.72111482		 0.00014967		-0.00000000		 0.00001436
O		-0.34915508		0.00000000		8.72888485		-0.00014967		-0.00000000		-0.00001436
O		1.47715495		1.75500006		6.87591507		 0.00009244		0.00000000		 0.00003063
O		1.61484503		1.75500006		3.43368508		-0.00009244		0.00000000		-0.00003063
