# total energy = -10314.125774 eV

CRYSTAL
PRIMVEC
		3.59774984		0.00000000		0.00000000
		0.00000000		3.51000072		0.00000000
		0.00000000		0.00000000		10.44999900
PRIMECORD
   14 1
Si		0.00000000		0.00000000		0.00000000		0.00000000		0.00000000		0.00000000
Si		1.79887492		1.75500000		5.22499986		0.00000000		0.00000000		0.00000000
Mg		0.00000000		0.00000000		3.90829969		0.00000000		0.00000000		-0.00058048
Mg		0.00000000		0.00000000		6.54169967		0.00000000		0.00000000		 0.00058048
Mg		1.79887492		1.75500000		9.13329955		0.00000000		0.00000000		-0.00038924
Mg		1.79887492		1.75500000		1.31669981		0.00000000		0.00000000		 0.00038924
O		0.00000000		1.75500000		0.00000000		0.00000000		0.00000000		0.00000000
O		1.79887492		0.00000000		0.00000000		0.00000000		0.00000000		0.00000000
O		1.79887492		0.00000000		5.22499986		0.00000000		0.00000000		0.00000000
O		0.00000000		1.75500000		5.22499986		0.00000000		0.00000000		0.00000000
O		0.00000000		0.00000000		1.72111495		0.00000000		0.00000000		-0.00077118
O		0.00000000		0.00000000		8.72888476		0.00000000		0.00000000		 0.00077118
O		1.79887492		1.75500000		6.94611481		0.00000000		0.00000000		-0.00060502
O		1.79887492		1.75500000		3.50388491		0.00000000		0.00000000		 0.00060502
