# total energy = -10313.3524599 eV

CRYSTAL
PRIMVEC
		3.24674978		0.00000000		0.00000000
		0.00000000		3.50999950		0.00000000
		0.00000000		0.00000000		10.44999857
PRIMECORD
   14 1
Si		0.00000000		0.00000000		0.00000000		0.00000000		0.00000000		0.00000000
Si		1.62337489		1.75499975		5.22499961		0.00000000		0.00000000		0.00000000
Mg		0.00000000		0.00000000		3.90829972		0.00000000		0.00000000		-0.00020918
Mg		0.00000000		0.00000000		6.54169950		0.00000000		0.00000000		 0.00020918
Mg		1.62337489		1.75499975		9.13329933		0.00000000		0.00000000		-0.00030742
Mg		1.62337489		1.75499975		1.31669989		0.00000000		0.00000000		 0.00030742
O		0.00000000		1.75499975		0.00000000		0.00000000		0.00000000		0.00000000
O		1.62337489		0.00000000		0.00000000		0.00000000		0.00000000		0.00000000
O		1.62337489		0.00000000		5.22499961		0.00000000		0.00000000		0.00000000
O		0.00000000		1.75499975		5.22499961		0.00000000		0.00000000		0.00000000
O		0.00000000		0.00000000		1.72111504		0.00000000		0.00000000		-0.00023057
O		0.00000000		0.00000000		8.72888450		0.00000000		0.00000000		 0.00023057
O		1.62337489		1.75499975		6.94611465		0.00000000		0.00000000		-0.00030735
O		1.62337489		1.75499975		3.50388489		0.00000000		0.00000000		 0.00030735
