# total energy = -10314.1061882 eV

CRYSTAL
PRIMVEC
		3.42224981		0.00000000		0.00000000
		0.00000000		3.50999972		0.00000000
		0.00000000		0.00000000		10.45000063
PRIMECORD
   14 1
Si		0.00000000		0.00000000		0.00000000		0.00000000		0.00000000		0.00000000
Si		1.71112490		1.75499986		5.22499963		0.00000000		0.00000000		0.00000000
Mg		0.00000000		0.00000000		3.90829963		0.00000000		0.00000000		-0.00045223
Mg		0.00000000		0.00000000		6.54169964		0.00000000		0.00000000		 0.00045223
Mg		1.71112490		1.75499986		9.13329960		0.00000000		0.00000000		-0.00036330
Mg		1.71112490		1.75499986		1.31670000		0.00000000		0.00000000		 0.00036330
O		0.00000000		1.75499986		0.00000000		0.00000000		0.00000000		0.00000000
O		1.71112490		0.00000000		0.00000000		0.00000000		0.00000000		0.00000000
O		1.71112490		0.00000000		5.22499963		0.00000000		0.00000000		0.00000000
O		0.00000000		1.75499986		5.22499963		0.00000000		0.00000000		0.00000000
O		0.00000000		0.00000000		1.72111479		0.00000000		0.00000000		-0.00057960
O		0.00000000		0.00000000		8.72888447		0.00000000		0.00000000		 0.00057960
O		1.71112490		1.75499986		6.94611477		0.00000000		0.00000000		-0.00046558
O		1.71112490		1.75499986		3.50388484		0.00000000		0.00000000		 0.00046558
