# total energy = -10313.9567751 eV

CRYSTAL
PRIMVEC
		3.68550012		0.00000000		0.00000000
		0.00000000		3.51000029		0.00000000
		0.00000000		0.00000000		10.44999971
PRIMECORD
   14 1
Si		0.00000000		0.00000000		0.00000000		0.00000000		0.00000000		0.00000000
Si		1.84275006		1.75500014		5.22500023		0.00000000		0.00000000		0.00000000
Mg		0.00000000		0.00000000		3.90830003		0.00000000		0.00000000		-0.00059903
Mg		0.00000000		0.00000000		6.54170006		0.00000000		0.00000000		 0.00059903
Mg		1.84275006		1.75500014		9.13330025		0.00000000		0.00000000		-0.00038799
Mg		1.84275006		1.75500014		1.31670020		0.00000000		0.00000000		 0.00038799
O		0.00000000		1.75500014		0.00000000		0.00000000		0.00000000		0.00000000
O		1.84275006		0.00000000		0.00000000		0.00000000		0.00000000		0.00000000
O		1.84275006		0.00000000		5.22500023		0.00000000		0.00000000		0.00000000
O		0.00000000		1.75500014		5.22500023		0.00000000		0.00000000		0.00000000
O		0.00000000		0.00000000		1.72111492		0.00000000		0.00000000		-0.00081665
O		0.00000000		0.00000000		8.72888516		0.00000000		0.00000000		 0.00081665
O		1.84275006		1.75500014		6.94611514		0.00000000		0.00000000		-0.00066271
O		1.84275006		1.75500014		3.50388494		0.00000000		0.00000000		 0.00066271
