# total energy = -7657.36268225 eV

CRYSTAL
PRIMVEC
		5.54070079		-0.66488276		0.00000000
		-3.34615521		5.13082787		0.00000000
		0.00000000		0.00000000		4.84350164
PRIMECORD
   15 1
Mg		0.00000000		0.00000000		0.00000000		0.00000000		0.00000000		0.00000000
Mg		-0.38387081		3.19892507		0.05279385		-0.00051740		-0.00045585		-0.00031637
Mg		2.57841415		1.26702004		4.79070612		 0.00051740		 0.00045585		 0.00031637
O		0.72044283		1.49596695		1.06557025		 0.00015233		 0.00016158		 0.00049798
O		1.47410107		2.96997817		3.77792972		-0.00015233		-0.00016158		-0.00049798
O		0.34899076		4.67558812		1.06557025		 0.00016639		 0.00000728		 0.00070282
O		1.84555314		-0.20964301		3.77792972		-0.00016639		-0.00000728		-0.00070282
O		-2.22104602		3.42521791		1.06557025		-0.00005547		 0.00008355		-0.00011387
O		4.41558992		1.04072720		3.77792972		 0.00005547		-0.00008355		 0.00011387
H		0.58481892		1.58176302		2.04395712		 0.00041275		 0.00007072		-0.00047652
H		1.60972387		2.88418209		2.79954284		-0.00041275		-0.00007072		 0.00047652
H		0.36893083		4.52989763		2.04395712		-0.00022693		 0.00021958		-0.00048505
H		1.82561308		-0.06395308		2.79954284		 0.00022693		-0.00021958		 0.00048505
H		-2.10536273		3.48511289		2.04395712		-0.00016438		 0.00038017		-0.00058454
H		4.29990719		0.98083223		2.79954284		 0.00016438		-0.00038017		 0.00058454
