# total energy = -7658.39788081 eV

CRYSTAL
PRIMVEC
		5.54070037		0.22162779		0.00000000
		-2.57841380		4.68757089		0.00000000
		0.00000000		0.00000000		4.84349997
PRIMECORD
   15 1
Mg		0.00000000		0.00000000		0.00000000		0.00000000		0.00000000		0.00000000
Mg		0.12795722		3.19892504		0.05279408		-0.00033825		 0.00093271		 0.00024462
Mg		2.83432824		1.71027586		4.79070589		 0.00033825		-0.00093271		-0.00024462
O		0.97732877		1.64206521		1.06557010		 0.00036764		-0.00025936		-0.00045703
O		1.98495614		3.26713625		3.77792986		-0.00036764		 0.00025936		 0.00045703
O		1.11481308		4.82332512		1.06557010		-0.00003758		 0.00046810		 0.00005867
O		1.84747183		0.08587578		3.77792986		 0.00003758		-0.00046810		-0.00005867
O		-1.70827130		3.13138423		1.06557010		-0.00023004		-0.00022698		-0.00022817
O		4.67055732		1.77781722		3.77792986		 0.00023004		 0.00022698		 0.00022817
H		0.85299086		1.70751383		2.04395689		 0.00001656		 0.00082112		 0.00056448
H		2.10929406		3.20168596		2.79954308		-0.00001656		-0.00082112		-0.00056448
H		1.11149100		4.67803437		2.04395689		 0.00032904		 0.00059784		 0.00002058
H		1.85079502		0.23116708		2.79954308		-0.00032904		-0.00059784		-0.00002058
H		-1.58061129		3.21122525		2.04395689		-0.00030214		-0.00011232		 0.00021038
H		4.54289731		1.69797510		2.79954308		 0.00030214		 0.00011232		-0.00021038
