# total energy = -34531.1409933 eV	

CRYSTAL	
PRIMVEC	
		8.87679989		0.00000000		0.00000000	
		0.00000000		5.30799789		0.00000000	
		-0.45648056		0.00000000		13.28130821	
PRIMCOORD
   56 1	
Si		1.19417370		2.54146953		4.82257719		-0.00021721		-0.00014518		 0.00006258	
Si		7.22614652		2.76653014		8.45873368		 0.00021721		 0.00014518		-0.00006258	
Si		7.45438591		2.54146953		1.81807869		 0.00022093		-0.00015490		-0.00009485	
Si		0.96593431		2.76653014		11.46323219		-0.00022093		 0.00015490		 0.00009485	
Si		5.63257364		5.19547025		4.82257719		-0.00021960		-0.00014437		 0.00006048	
Si		2.78774658		0.11253030		8.45873368		 0.00021960		 0.00014437		-0.00006048	
Si		3.01598686		5.19547025		1.81807869		 0.00022418		-0.00015440		-0.00009359	
Si		5.40433425		0.11253030		11.46323219		-0.00022418		 0.00015440		 0.00009359	
Mg		4.21015967		2.65399983		6.64065499		0.00000000		0.00000000		0.00000000	
Mg		4.43839994		2.65399983		0.00000000		0.00000000		0.00000000		0.00000000	
Mg		-0.22823939		0.00000000		6.64065499		0.00000000		0.00000000		0.00000000	
Mg		0.00000000		0.00000000		0.00000000		0.00000000		0.00000000		0.00000000	
O		0.43897640		1.13432010		4.97119524		 0.00021101		-0.00089615		-0.00019039	
O		7.98134471		4.17367957		8.31011564		-0.00021101		 0.00089615		 0.00019039	
O		8.20958410		1.13432010		1.66946064		-0.00021350		-0.00089426		 0.00019262	
O		0.21073700		4.17367957		11.61185023		 0.00021350		 0.00089426		-0.00019262	
O		4.87737634		3.78831993		4.97119524		 0.00021138		-0.00089555		-0.00019032	
O		3.54294477		1.51967974		8.31011564		-0.00021138		 0.00089555		 0.00019032	
O		3.77118416		3.78831993		1.66946064		-0.00021424		-0.00089337		 0.00019267	
O		4.64913695		1.51967974		11.61185023		 0.00021424		 0.00089337		-0.00019267	
O		2.52962699		2.43743432		5.63791570		-0.00057810		-0.00007172		-0.00051715	
O		5.89069412		2.87056623		7.64339429		 0.00057810		 0.00007172		 0.00051715	
O		6.11893262		2.43743432		1.00273929		 0.00058215		-0.00007201		 0.00052154	
O		2.30138671		2.87056623		12.27857158		-0.00058215		 0.00007201		-0.00052154	
O		6.96802694		5.09143416		5.63791570		-0.00057574		-0.00007208		-0.00051598	
O		1.45229417		0.21656640		7.64339429		 0.00057574		 0.00007208		 0.00051598	
O		1.68053356		5.09143416		1.00273929		 0.00057957		-0.00007242		 0.00052037	
O		6.73978666		0.21656640		12.27857158		-0.00057957		 0.00007242		-0.00052037	
O		0.38528596		3.65933470		5.65518196		 0.00065711		-0.00008997		 0.00043371	
O		8.03503515		1.64866496		7.62612891		-0.00065711		 0.00008997		-0.00043371	
O		8.26327365		3.65933470		0.98547303		-0.00065795		-0.00009255		-0.00042932	
O		0.15704657		1.64866496		12.29583696		 0.00065795		 0.00009255		 0.00042932	
O		4.82368590		1.00533487		5.65518196		 0.00065746		-0.00009055		 0.00043362	
O		3.59663520		4.30266480		7.62612891		-0.00065746		 0.00009055		-0.00043362	
O		3.82487371		1.00533487		0.98547303		-0.00065848		-0.00009323		-0.00042899	
O		4.59544651		4.30266480		12.29583696		 0.00065848		 0.00009323		 0.00042899	
O		1.38234588		3.11208088		3.35087478		 0.00020705		-0.00054200		 0.00031145	
O		7.03797523		2.19591968		9.93043609		-0.00020705		 0.00054200		-0.00031145	
O		7.26621373		3.11208088		3.28978110		-0.00021075		-0.00053382		-0.00028628	
O		1.15410737		2.19591968		9.99152978		 0.00021075		 0.00053382		 0.00028628	
O		5.82074582		0.45808016		3.35087478		 0.00020715		-0.00054248		 0.00031257	
O		2.59957529		4.84991951		9.93043609		-0.00020715		 0.00054248		-0.00031257	
O		2.82781379		0.45808016		3.28978110		-0.00021107		-0.00053403		-0.00028674	
O		5.59250732		4.84991951		9.99152978		 0.00021107		 0.00053403		 0.00028674	
Ca		1.51182288		2.54784041		1.18761463		-0.00048196		-0.00009383		 0.00002191	
Ca		6.90849823		2.76016015		12.09369625		 0.00048196		 0.00009383		-0.00002191	
Ca		7.13673762		2.54784041		5.45304125		 0.00048181		-0.00009356		-0.00002747	
Ca		1.28358260		2.76016015		7.82826962		-0.00048181		 0.00009356		 0.00002747	
Ca		5.95022282		5.20184024		1.18761463		-0.00048252		-0.00009384		 0.00002198	
Ca		2.47009828		0.10616031		12.09369625		 0.00048252		 0.00009384		-0.00002198	
Ca		2.69833767		5.20184024		5.45304125		 0.00048225		-0.00009354		-0.00002754	
Ca		5.72198255		0.10616031		7.82826962		-0.00048225		 0.00009354		 0.00002754	
Ca		-0.11412014		4.93166330		3.32032794		-0.00000047		 0.00000298		-0.00000360	
Ca		-0.34235864		0.37633726		9.96098293		 0.00000047		-0.00000298		 0.00000360	
Ca		4.32427981		2.27766258		3.32032794		-0.00000040		 0.00000290		-0.00000366	
Ca		4.09604130		3.03033709		9.96098293		 0.00000040		-0.00000290		 0.00000366	
