# total energy = -34531.8504973 eV	

CRYSTAL	
PRIMVEC	
		9.81119982		0.00000000		0.00000000	
		0.00000000		5.30799646		0.00000000	
		-0.50453114		0.00000000		13.28131328	
PRIMCOORD
   56 1	
Si		1.31987618		2.54146966		4.82257656		 0.00066240		 0.00056967		 0.00040521	
Si		7.98679348		2.76652975		8.45873378		-0.00066240		-0.00056967		-0.00040521	
Si		8.23905905		2.54146966		1.81807910		-0.00064888		 0.00048523		-0.00065318	
Si		1.06761061		2.76652975		11.46323221		 0.00064888		-0.00048523		 0.00065318	
Si		6.22547610		5.19546985		4.82257656		 0.00066275		 0.00056991		 0.00040479	
Si		3.08119357		0.11252956		8.45873378		-0.00066275		-0.00056991		-0.00040479	
Si		3.33345914		5.19546985		1.81807910		-0.00064865		 0.00048499		-0.00065362	
Si		5.97321151		0.11252956		11.46323221		 0.00064865		-0.00048499		 0.00065362	
Mg		4.65333532		2.65400019		6.64065468		0.00000000		0.00000000		0.00000000	
Mg		4.90559991		2.65400019		0.00000000		0.00000000		0.00000000		0.00000000	
Mg		-0.25226459		0.00000000		6.64065468		0.00000000		0.00000000		0.00000000	
Mg		0.00000000		0.00000000		0.00000000		0.00000000		0.00000000		0.00000000	
O		0.48518443		1.13431991		4.97119465		-0.00008082		 0.00058162		 0.00056058	
O		8.82148621		4.17367950		8.31011568		 0.00008082		-0.00058162		-0.00056058	
O		9.07375080		1.13431991		1.66946101		 0.00006791		 0.00061762		-0.00052862	
O		0.23291886		4.17367950		11.61184933		-0.00006791		-0.00061762		 0.00052862	
O		5.39078435		3.78832010		4.97119465		-0.00008094		 0.00058156		 0.00056058	
O		3.91588630		1.51968029		8.31011568		 0.00008094		-0.00058156		-0.00056058	
O		4.16815089		3.78832010		1.66946101		 0.00006778		 0.00061780		-0.00052851	
O		5.13851878		1.51968029		11.61184933		-0.00006778		-0.00061780		 0.00052851	
O		2.79590252		2.43743365		5.63791571		 0.00064689		-0.00006855		 0.00063637	
O		6.51076714		2.87056575		7.64339364		-0.00064689		 0.00006855		-0.00063637	
O		6.76303173		2.43743365		1.00273896		-0.00061104		-0.00006593		-0.00059832	
O		2.54363891		2.87056575		12.27857137		 0.00061104		 0.00006593		 0.00059832	
O		7.70150243		5.09143385		5.63791571		 0.00064688		-0.00006858		 0.00063636	
O		1.60516723		0.21656556		7.64339364		-0.00064688		 0.00006858		-0.00063636	
O		1.85743182		5.09143385		1.00273896		-0.00061115		-0.00006586		-0.00059838	
O		7.44923882		0.21656556		12.27857137		 0.00061115		 0.00006586		 0.00059838	
O		0.42584335		3.65933520		5.65518146		-0.00061772		 0.00010024		 0.00000003	
O		8.88082827		1.64866519		7.62612887		 0.00061772		-0.00010024		-0.00000003	
O		9.13309286		3.65933520		0.98547321		 0.00059775		 0.00008112		 0.00003558	
O		0.17357779		1.64866519		12.29583712		-0.00059775		-0.00008112		-0.00003558	
O		5.33144327		1.00533500		5.65518146		-0.00061786		 0.00010031		 0.00000010	
O		3.97522836		4.30266538		7.62612887		 0.00061786		-0.00010031		-0.00000010	
O		4.22749295		1.00533500		0.98547321		 0.00059749		 0.00008102		 0.00003575	
O		5.07917770		4.30266538		12.29583712		-0.00059749		-0.00008102		-0.00003575	
O		1.52785694		3.11208119		3.35087500		-0.00059168		-0.00006496		 0.00015054	
O		7.77881370		2.19592018		9.93043533		 0.00059168		 0.00006496		-0.00015054	
O		8.03107927		3.11208119		3.28978066		 0.00057416		-0.00001005		 0.00004626	
O		1.27559235		2.19592018		9.99152967		-0.00057416		 0.00001005		-0.00004626	
O		6.43345587		0.45808001		3.35087500		-0.00059189		-0.00006505		 0.00015097	
O		2.87321379		4.84992037		9.93043533		 0.00059189		 0.00006505		-0.00015097	
O		3.12547936		0.45808001		3.28978066		 0.00057407		-0.00000997		 0.00004650	
O		6.18119226		4.84992037		9.99152967		-0.00057407		 0.00000997		-0.00004650	
Ca		1.67096212		2.54784007		1.18761532		-0.00065226		-0.00047075		-0.00008212	
Ca		7.63570754		2.76016032		12.09369599		 0.00065226		 0.00047075		 0.00008212	
Ca		7.88797311		2.54784007		5.45304131		 0.00065241		-0.00047192		 0.00004666	
Ca		1.41869655		2.76016032		7.82827000		-0.00065241		 0.00047192		-0.00004666	
Ca		6.57656203		5.20184026		1.18761532		-0.00065225		-0.00047080		-0.00008211	
Ca		2.73010861		0.10616013		12.09369599		 0.00065225		 0.00047080		 0.00008211	
Ca		2.98237320		5.20184026		5.45304131		 0.00065235		-0.00047185		 0.00004668	
Ca		6.32429646		0.10616013		7.82827000		-0.00065235		 0.00047185		-0.00004668	
Ca		-0.12613180		4.93166336		3.32032783		 0.00000157		 0.00058320		-0.00002054	
Ca		-0.37839737		0.37633702		9.96098250		-0.00000157		-0.00058320		 0.00002054	
Ca		4.77946811		2.27766317		3.32032783		 0.00000156		 0.00058322		-0.00002061	
Ca		4.52720254		3.03033721		9.96098250		-0.00000156		-0.00058322		 0.00002061	
