# total energy = -34524.1849358 eV	

CRYSTAL	
PRIMVEC	
		9.34399986		0.00000000		0.00000000	
		0.00000000		5.30799928		-0.84927615	
		-0.48050585		-2.12501245		13.28130911	
PRIMCOORD
   56 1	
Si		1.25702494		1.76985823		4.41594163		-0.00003984		-0.00017268		-0.00010615	
Si		7.60647094		1.41313234		8.01608853		 0.00003984		 0.00017268		 0.00010615	
Si		7.84672293		2.25057805		1.41144295		 0.00037464		-0.00003171		 0.00048848	
Si		1.01677295		0.93241345		11.02058721		-0.00037464		 0.00003171		-0.00048848	
Si		5.92902487		4.42385786		3.99130169		-0.00006669		-0.00007968		-0.00006499	
Si		2.93447101		-1.24086823		8.44072847		 0.00006669		 0.00007968		 0.00006499	
Si		3.17472300		4.90457769		0.98680301		-0.00001932		 0.00002320		 0.00034082	
Si		5.68877288		-1.72158806		11.44522715		 0.00001932		-0.00002320		-0.00034082	
Mg		4.43174794		1.59149528		6.21601461		0.00000000		0.00000000		0.00000000	
Mg		4.67199993		2.65399964		-0.42463994		0.00000000		0.00000000		0.00000000	
Mg		-0.24025199		-1.06250529		6.64065455		0.00000000		0.00000000		0.00000000	
Mg		0.00000000		0.00000000		0.00000000		0.00000000		0.00000000		0.00000000	
O		0.46208042		0.33892837		4.78970349		-0.00024299		-0.00002439		-0.00029445	
O		8.40141453		2.84406220		7.64232667		 0.00024299		 0.00002439		 0.00029445	
O		8.64166745		0.86720635		1.48797031		-0.00008743		-0.00007164		 0.00025702	
O		0.22182843		2.31578422		10.94406078		 0.00008743		 0.00007164		-0.00025702	
O		5.13408034		2.99292894		4.36506355		-0.00027527		-0.00006118		-0.00031358	
O		3.72941553		0.19006163		8.06696661		 0.00027527		 0.00006118		 0.00031358	
O		3.96966752		3.52120599		1.06333036		-0.00001229		-0.00013297		 0.00023366	
O		4.89382835		-0.33821635		11.36870073		 0.00001229		 0.00013297		-0.00023366	
O		2.66276525		1.53536681		5.24792670		-0.00012240		 0.00056206		 0.00012513	
O		6.20072970		1.64762282		7.18410345		 0.00012240		-0.00056206		-0.00012513	
O		6.44098262		2.27699541		0.61274961		-0.00015691		-0.00027372		-0.00023359	
O		2.42251326		0.90599516		11.81928055		 0.00015691		 0.00027372		 0.00023359	
O		7.33476517		4.18936738		4.82328676		-0.00012639		 0.00055997		 0.00012926	
O		1.52873070		-1.00637682		7.60874433		 0.00012639		-0.00055997		-0.00012926	
O		1.76898269		4.93099598		0.18810967		 0.00004014		-0.00030780		-0.00018919	
O		7.09451318		-1.74800541		12.24392049		-0.00004014		 0.00030780		 0.00018919	
O		0.40556510		2.75450557		5.06968804		 0.00025891		 0.00008028		-0.00024323	
O		8.45793078		0.42848406		7.36234305		-0.00025891		-0.00008028		 0.00024323	
O		8.69818277		3.50166021		0.39998019		 0.00060156		-0.00014480		 0.00032311	
O		0.16531218		-0.31866871		12.03205090		-0.00060156		 0.00014480		-0.00032311	
O		5.07756409		0.10050593		5.49432798		 0.00031814		 0.00002116		-0.00027965	
O		3.78593085		3.08248370		6.93770311		-0.00031814		-0.00002116		 0.00027965	
O		4.02618284		0.84765963		0.82462013		 0.00066519		-0.00012576		 0.00026966	
O		4.83731210		2.33533093		11.60741096		-0.00066519		 0.00012576		-0.00026966	
O		1.45510185		2.57594080		2.85294181		 0.00025114		 0.00004430		 0.00021998	
O		7.40839402		0.60704977		9.57908929		-0.00025114		-0.00004430		-0.00021998	
O		7.64864601		2.58571556		2.79184793		 0.00054178		 0.00006858		-0.00018591	
O		1.21484893		0.59727501		9.64018316		-0.00054178		-0.00006858		 0.00018591	
O		6.12710085		-0.07805884		3.27758175		 0.00021272		 0.00003429		 0.00021500	
O		2.73639410		3.26105034		9.15444841		-0.00021272		-0.00003429		-0.00021500	
O		2.97664609		-0.06828408		3.21648787		 0.00064484		 0.00009070		-0.00001803	
O		5.88684886		3.25127465		9.21554322		-0.00064484		-0.00009070		 0.00001803	
Ca		1.59139157		2.35782194		0.77995955		-0.00029347		 0.00032966		 0.00000791	
Ca		7.27210244		0.82516863		11.65206967		 0.00029347		-0.00032966		-0.00000791	
Ca		7.51235443		1.67535301		5.04538616		 0.00017590		-0.00000454		-0.00018852	
Ca		1.35113958		1.50763662		7.38664493		-0.00017590		 0.00000454		 0.00018852	
Ca		6.26339149		5.01182158		0.35531961		-0.00023071		 0.00034111		 0.00000798	
Ca		2.60010251		-1.82883101		12.07670961		 0.00023071		-0.00034111		-0.00000798	
Ca		2.84035450		4.32935358		4.62074622		 0.00015272		-0.00000140		-0.00018460	
Ca		6.02313950		-1.14636302		7.81128487		-0.00015272		 0.00000140		 0.00018460	
Ca		-0.12012646		4.40041003		2.53126153		 0.00015926		-0.00023057		-0.00005011	
Ca		-0.36037845		-1.21742040		9.90076863		-0.00015926		 0.00023057		 0.00005011	
Ca		4.55187347		1.74641039		2.95590241		 0.00013648		-0.00022158		-0.00000916	
Ca		4.31162148		1.43658018		9.47612869		-0.00013648		 0.00022158		 0.00000916	
