# total energy = -34529.2568647 eV	

CRYSTAL	
PRIMVEC	
		9.34399986		0.00000000		0.00000000	
		0.00000000		5.30799928		-0.42463807	
		-0.48050585		-1.06250622		13.28130911	
PRIMCOORD
   56 1	
Si		1.25702494		2.15566357		4.61925866		 0.00004856		 0.00040862		-0.00014295	
Si		7.60647094		2.08983135		8.23741144		-0.00004856		-0.00040862		 0.00014295	
Si		7.84672293		2.39602395		1.61476091		 0.00010266		-0.00011733		-0.00018070	
Si		1.01677295		1.84947097		11.24191012		-0.00010266		 0.00011733		 0.00018070	
Si		5.92902487		4.80966414		4.40693868		-0.00009087		 0.00042433		-0.00014311	
Si		2.93447101		-0.56416922		8.44973142		 0.00009087		-0.00042433		 0.00014311	
Si		3.17472300		5.05002359		1.40244094		 0.00010483		-0.00013586		-0.00021199	
Si		5.68877288		-0.80452867		11.45423010		-0.00010483		 0.00013586		 0.00021199	
Mg		4.43174794		2.12274840		6.42833458		0.00000000		0.00000000		0.00000000	
Mg		4.67199993		2.65399964		-0.21231997		0.00000000		0.00000000		0.00000000	
Mg		-0.24025199		-0.53125218		6.64065455		0.00000000		0.00000000		0.00000000	
Mg		0.00000000		0.00000000		0.00000000		0.00000000		0.00000000		0.00000000	
O		0.46208042		0.73662395		4.88044868		-0.00009510		 0.00029135		 0.00081337	
O		8.40141453		3.50887097		7.97622142		 0.00009510		-0.00029135		-0.00081337	
O		8.64166745		1.00076294		1.57871456		 0.00029504		-0.00001191		-0.00003562	
O		0.22182843		3.24473198		11.27795554		-0.00029504		 0.00001191		 0.00003562	
O		5.13408034		3.39062359		4.66812871		-0.00007566		 0.00031661		 0.00080848	
O		3.72941553		0.85487133		8.18854232		 0.00007566		-0.00031661		-0.00080848	
O		3.96966752		3.65476258		1.36639459		 0.00029039		-0.00000507		-0.00003561	
O		4.89382835		0.59073234		11.49027551		-0.00029039		 0.00000507		 0.00003561	
O		2.66276525		1.98639982		5.44292196		-0.00049225		 0.00005658		 0.00025246	
O		6.20072970		2.25909511		7.41374907		 0.00049225		-0.00005658		-0.00025246	
O		6.44098262		2.35721365		0.80774394		 0.00009972		 0.00002985		-0.00029845	
O		2.42251326		1.88828128		12.04892616		-0.00009972		-0.00002985		 0.00029845	
O		7.33476517		4.64040132		5.23060199		-0.00041081		 0.00005268		 0.00029661	
O		1.52873070		-0.39490453		7.62606904		 0.00041081		-0.00005268		-0.00029661	
O		1.76898269		5.01121515		0.59542397		 0.00010149		 0.00003160		-0.00029664	
O		7.09451318		-0.76571930		12.26124613		-0.00010149		-0.00003160		 0.00029664	
O		0.40556510		3.20692055		5.36243462		-0.00056193		-0.00003424		-0.00018563	
O		8.45793078		1.03857437		7.49423548		 0.00056193		 0.00003424		 0.00018563	
O		8.69818277		3.58049740		0.69272584		-0.00013143		-0.00032480		-0.00033979	
O		0.16531218		0.66499845		12.16394426		 0.00013143		 0.00032480		 0.00033979	
O		5.07756409		0.55292091		5.57475459		-0.00051101		-0.00009047		-0.00022574	
O		3.78593085		3.69257401		7.28191551		 0.00051101		 0.00009047		 0.00022574	
O		4.02618284		0.92649683		0.90504581		-0.00013267		-0.00032654		-0.00033883	
O		4.83731210		3.31899809		11.95162335		 0.00013267		 0.00032654		 0.00033883	
O		1.45510185		2.84401081		3.10190801		 0.00046824		-0.00005547		-0.00062709	
O		7.40839402		1.40148505		9.75476209		-0.00046824		 0.00005547		 0.00062709	
O		7.64864601		2.84889772		3.04081414		 0.00011644		 0.00007146		-0.00028900	
O		1.21484893		1.39659720		9.81585690		-0.00011644		-0.00007146		 0.00028900	
O		6.12710085		0.19001117		3.31422798		 0.00047948		-0.00005024		-0.00063706	
O		2.73639410		4.05548469		9.54244212		-0.00047948		 0.00005024		 0.00063706	
O		2.97664609		0.19489808		3.25313411		 0.00011247		 0.00008097		-0.00026502	
O		5.88684886		4.05059684		9.60353693		-0.00011247		-0.00008097		 0.00026502	
Ca		1.59139157		2.45283080		0.98378770		 0.00003954		 0.00044446		-0.00004538	
Ca		7.27210244		1.79266413		11.87288240		-0.00003954		-0.00044446		 0.00004538	
Ca		7.51235443		2.11159727		5.24921337		 0.00002111		 0.00068724		-0.00032215	
Ca		1.35113958		2.13389766		7.60745766		-0.00002111		-0.00068724		 0.00032215	
Ca		6.26339149		5.10683137		0.77146773		 0.00003680		 0.00044317		-0.00004723	
Ca		2.60010251		-0.86133645		12.08520237		-0.00003680		-0.00044317		 0.00004723	
Ca		2.84035450		4.76559691		5.03689247		 0.00004057		 0.00068841		-0.00032188	
Ca		6.02313950		-0.52010198		7.81977763		-0.00004057		-0.00068841		 0.00032188	
Ca		-0.12012646		4.66603659		2.92579510		 0.00044677		-0.00014658		-0.00008584	
Ca		-0.36037845		-0.42054073		9.93087593		-0.00044677		 0.00014658		 0.00008584	
Ca		4.55187347		2.01203695		3.13811507		 0.00044642		-0.00014364		-0.00007813	
Ca		4.31162148		2.23345891		9.71855596		-0.00044642		 0.00014364		 0.00007813	
