# total energy = -66815.3903914 eV

CRYSTAL
PRIMVEC
		18.34339846		0.00000000		0.00000000
		0.00000000		6.73129350		0.00000000
		0.00000000		0.00000000		10.88440400
PRIMECORD
   112 1
Ca		14.17192622		6.72409738		2.52060857		 0.00021773		 0.00008184		 0.00017506
Ca		4.17147224		0.00720345		8.36378993		-0.00021773		-0.00008184		-0.00017506
Ca		4.17147224		0.00720345		2.52060857		-0.00021773		-0.00008184		 0.00017506
Ca		14.17192622		6.72409738		8.36378993		 0.00021773		 0.00008184		-0.00017506
Ca		13.34317147		3.35844697		2.92159159		-0.00021773		 0.00008184		-0.00017506
Ca		5.00022699		3.37285204		7.96281057		 0.00021773		-0.00008184		 0.00017506
Ca		5.00022699		3.37285204		2.92159159		 0.00021773		-0.00008184		-0.00017506
Ca		13.34317147		3.35844697		7.96281057		-0.00021773		 0.00008184		 0.00017506
Ca		7.55546239		1.06468937		8.14849713		-0.00005914		 0.00025256		-0.00031442
Ca		10.78793607		5.66660963		2.73590321		 0.00005914		-0.00025256		 0.00031442
Ca		10.78793607		5.66660963		8.14849713		 0.00005914		-0.00025256		-0.00031442
Ca		7.55546239		1.06468937		2.73590321		-0.00005914		 0.00025256		 0.00031442
Ca		1.61623684		4.43033979		8.17810337		 0.00005914		 0.00025256		 0.00031442
Ca		16.72716162		2.30095922		2.70629696		-0.00005914		-0.00025256		-0.00031442
Ca		16.72716162		2.30095922		8.17810337		-0.00005914		-0.00025256		 0.00031442
Ca		1.61623684		4.43033979		2.70629696		 0.00005914		 0.00025256		-0.00031442
Ca		6.10413271		5.40388814		0.00000000		-0.00014048		 0.00035350		0.00000000
Ca		12.23926575		1.32741269		0.00000000		 0.00014048		-0.00035350		0.00000000
Ca		3.06756652		2.03823773		5.44220017		 0.00014048		 0.00035350		-0.00000000
Ca		15.27583194		4.69306128		5.44220017		-0.00014048		-0.00035350		0.00000000
Ca		12.35024332		1.15643754		5.44220017		-0.00074477		-0.00026101		0.00000000
Ca		5.99315515		5.57486146		5.44220017		 0.00074477		 0.00026101		0.00000000
Ca		15.16485438		4.52208613		0.00000000		 0.00074477		-0.00026101		-0.00000000
Ca		3.17854409		2.20921287		0.00000000		-0.00074477		 0.00026101		-0.00000000
Ca		9.17169923		3.36565042		0.00000000		0.00000000		0.00000000		0.00000000
Ca		0.00000000		0.00000000		5.44220017		0.00000000		0.00000000		0.00000000
Ca		9.17169923		3.36565042		5.44220017		0.00000000		0.00000000		0.00000000
Ca		0.00000000		0.00000000		0.00000000		0.00000000		0.00000000		-0.00000000
Si		7.68918577		4.84249761		8.18267455		-0.00038877		 0.00026285		 0.00014009
Si		10.65421086		1.88880323		2.70172579		 0.00038877		-0.00026285		-0.00014009
Si		10.65421086		1.88880323		8.18267455		 0.00038877		-0.00026285		 0.00014009
Si		7.68918577		4.84249761		2.70172579		-0.00038877		 0.00026285		-0.00014009
Si		1.48251346		1.47684719		8.14392595		 0.00038877		 0.00026285		-0.00014009
Si		16.86088500		5.25445365		2.74047438		-0.00038877		-0.00026285		 0.00014009
Si		16.86088500		5.25445365		8.14392595		-0.00038877		-0.00026285		-0.00014009
Si		1.48251346		1.47684719		2.74047438		 0.00038877		 0.00026285		 0.00014009
Si		12.17689820		4.95087040		5.44220017		-0.00017744		 0.00031793		0.00000000
Si		6.16650026		1.78042860		5.44220017		 0.00017744		-0.00031793		0.00000000
Si		15.33819949		1.58522182		0.00000000		 0.00017744		 0.00031793		-0.00000000
Si		3.00519897		5.14607902		0.00000000		-0.00017744		-0.00031793		-0.00000000
Si		6.20337049		1.90361186		0.00000000		-0.00004999		-0.00048657		-0.00000000
Si		12.14002797		4.82768898		0.00000000		 0.00004999		 0.00048657		-0.00000000
Si		2.96832874		5.26926044		5.44220017		 0.00004999		-0.00048657		-0.00000000
Si		15.37506972		1.46203856		5.44220017		-0.00004999		 0.00048657		-0.00000000
Mg		9.17169923		0.00000000		5.44220017		0.00000000		0.00000000		0.00000000
Mg		0.00000000		3.36565042		0.00000000		0.00000000		0.00000000		-0.00000000
Mg		9.17169923		0.00000000		0.00000000		0.00000000		0.00000000		0.00000000
Mg		0.00000000		3.36565042		5.44220017		0.00000000		0.00000000		0.00000000
O		5.29573914		1.72994390		1.32789696		 0.00026631		 0.00011764		 0.00050749
O		13.04765933		5.00135511		9.55650337		-0.00026631		-0.00011764		-0.00050749
O		13.04765933		5.00135511		1.32789696		-0.00026631		-0.00011764		 0.00050749
O		5.29573914		1.72994390		9.55650337		 0.00026631		 0.00011764		-0.00050749
O		3.87596009		5.09559432		4.11430321		-0.00026631		 0.00011764		-0.00050749
O		14.46743837		1.63570652		6.77009712		 0.00026631		-0.00011764		 0.00050749
O		14.46743837		1.63570652		4.11430321		 0.00026631		-0.00011764		-0.00050749
O		3.87596009		5.09559432		6.77009712		-0.00026631		 0.00011764		 0.00050749
O		12.78168005		5.70410354		4.13933644		 0.00071888		-0.00012556		 0.00022602
O		5.56171841		1.02719546		6.74506205		-0.00071888		 0.00012556		-0.00022602
O		5.56171841		1.02719546		4.13933644		-0.00071888		 0.00012556		 0.00022602
O		12.78168005		5.70410354		6.74506205		 0.00071888		-0.00012556		-0.00022602
O		14.73341764		2.33845312		1.30286372		-0.00071888		-0.00012556		-0.00022602
O		3.60998082		4.39284588		9.58153661		 0.00071888		 0.00012556		 0.00022602
O		3.60998082		4.39284588		1.30286372		 0.00071888		 0.00012556		-0.00022602
O		14.73341764		2.33845312		9.58153661		-0.00071888		-0.00012556		 0.00022602
O		8.72595465		5.25647142		9.36711512		-0.00037236		-0.00029712		 0.00001627
O		9.61744381		1.47482758		1.51728521		 0.00037236		 0.00029712		-0.00001627
O		9.61744381		1.47482758		9.36711512		 0.00037236		 0.00029712		 0.00001627
O		8.72595465		5.25647142		1.51728521		-0.00037236		-0.00029712		-0.00001627
O		0.44574458		1.89082284		6.95948538		 0.00037236		-0.00029712		-0.00001627
O		17.89765388		4.84047800		3.92491496		-0.00037236		 0.00029712		 0.00001627
O		17.89765388		4.84047800		6.95948538		-0.00037236		 0.00029712		-0.00001627
O		0.44574458		1.89082284		3.92491496		 0.00037236		-0.00029712		 0.00001627
O		6.21712804		5.45302644		8.55731461		-0.00027560		 0.00011456		 0.00049556
O		12.12627042		1.27827440		2.32708572		 0.00027560		-0.00011456		-0.00049556
O		12.12627042		1.27827440		8.55731461		 0.00027560		-0.00011456		 0.00049556
O		6.21712804		5.45302644		2.32708572		-0.00027560		 0.00011456		-0.00049556
O		2.95457119		2.08737602		7.76928405		 0.00027560		 0.00011456		-0.00049556
O		15.38882727		4.64392298		3.11511445		-0.00027560		-0.00011456		 0.00049556
O		15.38882727		4.64392298		7.76928405		-0.00027560		-0.00011456		-0.00049556
O		2.95457119		2.08737602		3.11511445		 0.00027560		 0.00011456		 0.00049556
O		6.89711782		3.33805278		0.00000000		-0.00032200		-0.00075127		-0.00000000
O		11.44628064		3.39324806		0.00000000		 0.00032200		 0.00075127		0.00000000
O		2.27458141		6.70370136		5.44220017		 0.00032200		-0.00075127		0.00000000
O		16.06881705		0.02759764		5.44220017		-0.00032200		 0.00075127		0.00000000
O		7.54830847		3.29497147		7.82697220		 0.00021176		 0.00039575		 0.00002981
O		10.79508999		3.43632937		3.05742813		-0.00021176		-0.00039575		-0.00002981
O		10.79508999		3.43632937		7.82697220		-0.00021176		-0.00039575		 0.00002981
O		7.54830847		3.29497147		3.05742813		 0.00021176		 0.00039575		-0.00002981
O		1.62339076		6.66062005		8.49962829		-0.00021176		 0.00039575		-0.00002981
O		16.72000770		0.07067895		2.38477204		 0.00021176		-0.00039575		 0.00002981
O		16.72000770		0.07067895		8.49962829		 0.00021176		-0.00039575		-0.00002981
O		1.62339076		6.66062005		2.38477204		-0.00021176		 0.00039575		 0.00002981
O		7.29700391		0.70342164		0.00000000		 0.00001936		-0.00061106		0.00000000
O		11.04639455		6.02787920		0.00000000		-0.00001936		 0.00061106		0.00000000
O		1.87469532		4.06907022		5.44220017		-0.00001936		-0.00061106		-0.00000000
O		16.46870314		2.66222878		5.44220017		 0.00001936		 0.00061106		0.00000000
O		10.57313487		5.19521731		5.44220017		-0.00058151		-0.00048346		0.00000000
O		7.77026359		1.53608352		5.44220017		 0.00058151		 0.00048346		-0.00000000
O		16.94196282		1.82956689		0.00000000		 0.00058151		-0.00048346		-0.00000000
O		1.40143564		4.90173211		0.00000000		-0.00058151		 0.00048346		-0.00000000
O		12.74132457		3.45046479		5.44220017		 0.00016042		 0.00071672		0.00000000
O		5.60207389		3.28083605		5.44220017		-0.00016042		-0.00071672		0.00000000
O		14.77377312		0.08481437		0.00000000		-0.00016042		 0.00071672		0.00000000
O		3.56962534		6.64648463		0.00000000		 0.00016042		-0.00071672		-0.00000000
O		8.14997194		5.66102224		6.85281851		 0.00026570		 0.00013473		-0.00004912
O		10.19342652		1.07027677		4.03158182		-0.00026570		-0.00013473		 0.00004912
O		10.19342652		1.07027677		6.85281851		-0.00026570		-0.00013473		-0.00004912
O		8.14997194		5.66102224		4.03158182		 0.00026570		 0.00013473		 0.00004912
O		1.02172729		2.29537365		9.47378198		-0.00026570		 0.00013473		 0.00004912
O		17.32167117		4.43592535		1.41061835		 0.00026570		-0.00013473		-0.00004912
O		17.32167117		4.43592535		9.47378198		 0.00026570		-0.00013473		 0.00004912
O		1.02172729		2.29537365		1.41061835		-0.00026570		 0.00013473		-0.00004912
