# total energy = -66814.572517 eV	

CRYSTAL	
PRIMVEC	
		17.88481350		0.00000000		0.00000000	
		0.00000000		6.73130726		0.00000000	
		0.00000000		0.00000000		10.88439345	
PRIMCOORD
   112 1	
Ca		13.81762806		6.72409610		2.52060871		 0.00017094		 0.00007738		 0.00001794	
Ca		4.06718544		0.00720221		8.36379011		-0.00017094		-0.00007738		-0.00001794	
Ca		4.06718544		0.00720221		2.52060871		-0.00017094		-0.00007738		 0.00001794	
Ca		13.81762806		6.72409610		8.36379011		 0.00017094		 0.00007738		-0.00001794	
Ca		13.00959219		3.35844605		2.92159159		-0.00017094		 0.00007738		-0.00001794	
Ca		4.87522131		3.37285227		7.96280901		 0.00017094		-0.00007738		 0.00001794	
Ca		4.87522131		3.37285227		2.92159159		 0.00017094		-0.00007738		-0.00001794	
Ca		13.00959219		3.35844605		7.96280901		-0.00017094		 0.00007738		 0.00001794	
Ca		7.36657583		1.06469010		8.14849630		-0.00027734		 0.00032414		-0.00052154	
Ca		10.51823588		5.66661000		2.73590252		 0.00027734		-0.00032414		 0.00052154	
Ca		10.51823588		5.66661000		8.14849630		 0.00027734		-0.00032414		-0.00052154	
Ca		7.36657583		1.06469010		2.73590252		-0.00027734		 0.00032414		 0.00052154	
Ca		1.57583092		4.43034015		8.17810282		 0.00027734		 0.00032414		 0.00052154	
Ca		16.30898437		2.30095995		2.70629779		-0.00027734		-0.00032414		-0.00052154	
Ca		16.30898437		2.30095995		8.17810282		-0.00027734		-0.00032414		 0.00052154	
Ca		1.57583092		4.43034015		2.70629779		 0.00027734		 0.00032414		-0.00052154	
Ca		5.95152939		5.40388746		0.00000000		-0.00047513		-0.00030572		0.00000000	
Ca		11.93328411		1.32741265		0.00000000		 0.00047513		 0.00030572		-0.00000000	
Ca		2.99087736		2.03823741		5.44220030		 0.00047513		-0.00030572		-0.00000000	
Ca		14.89393614		4.69306270		5.44220030		-0.00047513		 0.00030572		-0.00000000	
Ca		12.04148723		1.15643741		5.44220030		-0.00049229		 0.00000943		-0.00000000	
Ca		5.84332627		5.57486270		5.44220030		 0.00049229		-0.00000943		0.00000000	
Ca		14.78573302		4.52208746		0.00000000		 0.00049229		 0.00000943		-0.00000000	
Ca		3.09908048		2.20921265		0.00000000		-0.00049229		-0.00000943		-0.00000000	
Ca		8.94240675		3.36565005		0.00000000		0.00000000		0.00000000		0.00000000	
Ca		0.00000000		0.00000000		5.44220030		0.00000000		0.00000000		-0.00000000	
Ca		8.94240675		3.36565005		5.44220030		0.00000000		0.00000000		0.00000000	
Ca		0.00000000		0.00000000		0.00000000		0.00000000		0.00000000		-0.00000000	
Si		7.49695612		4.84249747		8.18267418		 0.00012810		 0.00011002		-0.00004661	
Si		10.38785738		1.88880263		2.70172643		-0.00012810		-0.00011002		 0.00004661	
Si		10.38785738		1.88880263		8.18267418		-0.00012810		-0.00011002		-0.00004661	
Si		7.49695612		4.84249747		2.70172643		 0.00012810		 0.00011002		 0.00004661	
Si		1.44545063		1.47684742		8.14392494		-0.00012810		 0.00011002		 0.00004661	
Si		16.43936287		5.25445269		2.74047388		 0.00012810		-0.00011002		-0.00004661	
Si		16.43936287		5.25445269		8.14392494		 0.00012810		-0.00011002		 0.00004661	
Si		1.44545063		1.47684742		2.74047388		-0.00012810		 0.00011002		-0.00004661	
Si		11.87247575		4.95087050		5.44220030		 0.00050604		 0.00020184		0.00000000	
Si		6.01233775		1.78042961		5.44220030		-0.00050604		-0.00020184		0.00000000	
Si		14.95474450		1.58522044		0.00000000		-0.00050604		 0.00020184		0.00000000	
Si		2.93006900		5.14607966		0.00000000		 0.00050604		-0.00020184		0.00000000	
Si		6.04828623		1.90361126		0.00000000		-0.00002057		-0.00069915		-0.00000000	
Si		11.83652727		4.82768884		0.00000000		 0.00002057		 0.00069915		-0.00000000	
Si		2.89412052		5.26926131		5.44220030		 0.00002057		-0.00069915		0.00000000	
Si		14.99069298		1.46203879		5.44220030		-0.00002057		 0.00069915		0.00000000	
Mg		8.94240675		0.00000000		5.44220030		0.00000000		0.00000000		0.00000000	
Mg		0.00000000		3.36565005		0.00000000		0.00000000		0.00000000		0.00000000	
Mg		8.94240675		0.00000000		0.00000000		0.00000000		0.00000000		-0.00000000	
Mg		0.00000000		3.36565005		5.44220030		0.00000000		0.00000000		0.00000000	
O		5.16334566		1.72994436		1.32789732		 0.00028490		-0.00029143		 0.00060518	
O		12.72146784		5.00135575		9.55650328		-0.00028490		 0.00029143		-0.00060518	
O		12.72146784		5.00135575		1.32789732		-0.00028490		 0.00029143		 0.00060518	
O		5.16334566		1.72994436		9.55650328		 0.00028490		-0.00029143		-0.00060518	
O		3.77906109		5.09559441		4.11430477		-0.00028490		-0.00029143		-0.00060518	
O		14.10575241		1.63570570		6.77009763		 0.00028490		 0.00029143		 0.00060518	
O		14.10575241		1.63570570		4.11430477		 0.00028490		 0.00029143		-0.00060518	
O		3.77906109		5.09559441		6.77009763		-0.00028490		-0.00029143		 0.00060518	
O		12.46213805		5.70410372		4.13933635		-0.00017271		 0.00014702		-0.00031803	
O		5.42267545		1.02719638		6.74506247		 0.00017271		-0.00014702		 0.00031803	
O		5.42267545		1.02719638		4.13933635		 0.00017271		-0.00014702		-0.00031803	
O		12.46213805		5.70410372		6.74506247		-0.00017271		 0.00014702		 0.00031803	
O		14.36508220		2.33845367		1.30286216		 0.00017271		 0.00014702		 0.00031803	
O		3.51973130		4.39284643		9.58153666		-0.00017271		-0.00014702		-0.00031803	
O		3.51973130		4.39284643		1.30286216		-0.00017271		-0.00014702		 0.00031803	
O		14.36508220		2.33845367		9.58153666		 0.00017271		 0.00014702		-0.00031803	
O		8.50780578		5.25647188		9.36711563		-0.00080085		-0.00009417		 0.00024612	
O		9.37700772		1.47482822		1.51728498		 0.00080085		 0.00009417		-0.00024612	
O		9.37700772		1.47482822		9.36711563		 0.00080085		 0.00009417		 0.00024612	
O		8.50780578		5.25647188		1.51728498		-0.00080085		-0.00009417		-0.00024612	
O		0.43460097		1.89082183		6.95948528		 0.00080085		-0.00009417		-0.00024612	
O		17.45021253		4.84047827		3.92491532		-0.00080085		 0.00009417		 0.00024612	
O		17.45021253		4.84047827		6.95948528		-0.00080085		 0.00009417		-0.00024612	
O		0.43460097		1.89082183		3.92491532		 0.00080085		-0.00009417		 0.00024612	
O		6.06169984		5.45302598		8.55731452		 0.00021478		-0.00007374		 0.00013132	
O		11.82311366		1.27827412		2.32708430		-0.00021478		 0.00007374		-0.00013132	
O		11.82311366		1.27827412		8.55731452		-0.00021478		 0.00007374		 0.00013132	
O		6.06169984		5.45302598		2.32708430		 0.00021478		-0.00007374		-0.00013132	
O		2.88070691		2.08737593		7.76928460		-0.00021478		-0.00007374		-0.00013132	
O		15.00410659		4.64392417		3.11511422		 0.00021478		 0.00007374		 0.00013132	
O		15.00410659		4.64392417		7.76928460		 0.00021478		 0.00007374		-0.00013132	
O		2.88070691		2.08737593		3.11511422		-0.00021478		-0.00007374		 0.00013132	
O		6.72468988		3.33805200		0.00000000		 0.00026208		-0.00094405		-0.00000000	
O		11.16012362		3.39324811		0.00000000		-0.00026208		 0.00094405		-0.00000000	
O		2.21771687		6.70370205		5.44220030		-0.00026208		-0.00094405		-0.00000000	
O		15.66709663		0.02759806		5.44220030		 0.00026208		 0.00094405		-0.00000000	
O		7.35960075		3.29497106		7.82697207		-0.00026402		-0.00020357		 0.00016257	
O		10.52521274		3.43632905		3.05742854		 0.00026402		 0.00020357		-0.00016257	
O		10.52521274		3.43632905		7.82697207		 0.00026402		 0.00020357		 0.00016257	
O		7.35960075		3.29497106		3.05742854		-0.00026402		-0.00020357		-0.00016257	
O		1.58280599		6.66062111		8.49962706		 0.00026402		-0.00020357		-0.00016257	
O		16.30200750		0.07067899		2.38477176		-0.00026402		 0.00020357		 0.00016257	
O		16.30200750		0.07067899		8.49962706		-0.00026402		 0.00020357		-0.00016257	
O		1.58280599		6.66062111		2.38477176		 0.00026402		-0.00020357		 0.00016257	
O		7.11457881		0.70342045		0.00000000		-0.00016422		-0.00046051		0.00000000	
O		10.77023648		6.02787966		0.00000000		 0.00016422		 0.00046051		0.00000000	
O		1.82782794		4.06907050		5.44220030		 0.00016422		-0.00046051		0.00000000	
O		16.05698556		2.66222961		5.44220030		-0.00016422		 0.00046051		0.00000000	
O		10.30880650		5.19521639		5.44220030		 0.00033893		-0.00016763		-0.00000000	
O		7.57600700		1.53608371		5.44220030		-0.00033893		 0.00016763		-0.00000000	
O		16.51841375		1.82956634		0.00000000		-0.00033893		-0.00016763		0.00000000	
O		1.36639975		4.90173197		0.00000000		 0.00033893		 0.00016763		0.00000000	
O		12.42279146		3.45046341		5.44220030		-0.00024135		-0.00000419		0.00000000	
O		5.46202204		3.28083669		5.44220030		 0.00024135		 0.00000419		0.00000000	
O		14.40442879		0.08481336		0.00000000		 0.00024135		-0.00000419		0.00000000	
O		3.48038471		6.64648495		0.00000000		-0.00024135		 0.00000419		0.00000000	
O		7.94622264		5.66102279		6.85281847		-0.00005748		 0.00044622		-0.00019408	
O		9.93859086		1.07027732		4.03158214		 0.00005748		-0.00044622		 0.00019408	
O		9.93859086		1.07027732		6.85281847		 0.00005748		-0.00044622		-0.00019408	
O		7.94622264		5.66102279		4.03158214		-0.00005748		 0.00044622		 0.00019408	
O		0.99618411		2.29537273		9.47378244		 0.00005748		 0.00044622		 0.00019408	
O		16.88862939		4.43592558		1.41061816		-0.00005748		-0.00044622		-0.00019408	
O		16.88862939		4.43592558		9.47378244		-0.00005748		-0.00044622		 0.00019408	
O		0.99618411		2.29537273		1.41061816		 0.00005748		 0.00044622		-0.00019408	
