# total energy = -41273.3332343 eV

CRYSTAL
PRIMVEC
		5.69829968		0.00000000		0.00000000
		0.00000000		12.29584804		0.00000000
		0.00000000		0.00000000		8.25659691
PRIMECORD
   56 1
Mg		0.00000000		0.00000000		0.00000000		0.00000000		0.00000000		0.00000000
Mg		0.00000000		6.14792459		0.00000000		0.00000000		0.00000000		0.00000000
Mg		2.84914984		6.14792459		4.12829960		0.00000000		0.00000000		0.00000000
Mg		2.84914984		0.00000000		4.12829960		0.00000000		0.00000000		0.00000000
Mg		0.00000000		3.07396201		8.00972777		0.00000000		 0.00000001		 0.00064626
Mg		0.00000000		9.22188660		0.24687200		0.00000000		-0.00000001		-0.00064626
Mg		2.84914984		9.22188660		3.88142760		-0.00000000		-0.00000000		 0.00064627
Mg		2.84914984		3.07396201		4.37517273		-0.00000000		0.00000000		-0.00064627
Mg		1.42457492		1.56894989		2.06414980		-0.00000001		 0.00010489		0.00000000
Mg		4.27372476		10.72689815		6.19244939		 0.00000001		-0.00010489		-0.00000000
Mg		4.27372476		4.57897356		2.06414980		0.00000000		-0.00010488		-0.00000000
Mg		1.42457492		7.71687448		6.19244939		-0.00000000		 0.00010488		0.00000000
Mg		4.27372476		7.71687448		6.19244939		0.00000000		 0.00010488		0.00000000
Mg		1.42457492		4.57897356		2.06414980		-0.00000000		-0.00010488		-0.00000000
Mg		1.42457492		10.72689815		6.19244939		-0.00000001		-0.00010489		-0.00000000
Mg		4.27372476		1.56894989		2.06414980		 0.00000001		 0.00010489		0.00000000
Si		0.00000000		1.47304295		5.09267072		0.00000000		-0.00012851		-0.00043339
Si		0.00000000		10.82280623		3.16392904		0.00000000		 0.00012851		 0.00043339
Si		0.00000000		4.67488164		5.09267072		0.00000000		 0.00012853		-0.00043337
Si		0.00000000		7.62096640		3.16392904		0.00000000		-0.00012853		 0.00043337
Si		2.84914984		7.62096640		0.96437112		-0.00000000		-0.00012853		-0.00043338
Si		2.84914984		4.67488164		7.29222864		-0.00000000		 0.00012853		 0.00043338
Si		2.84914984		10.82280623		0.96437112		0.00000000		 0.00012851		-0.00043339
Si		2.84914984		1.47304295		7.29222864		0.00000000		-0.00012851		 0.00043339
O		0.00000000		3.07396201		1.78838002		0.00000000		-0.00000001		-0.00016595
O		0.00000000		9.22188660		6.46822089		0.00000000		 0.00000001		 0.00016595
O		2.84914984		9.22188660		5.91667961		-0.00000000		-0.00000001		-0.00016595
O		2.84914984		3.07396201		2.33992072		-0.00000000		 0.00000001		 0.00016595
O		0.00000000		3.07396201		5.91502881		-0.00000000		-0.00000001		-0.00031591
O		0.00000000		9.22188660		2.34157209		-0.00000000		 0.00000001		 0.00031591
O		2.84914984		9.22188660		1.78672865		0.00000000		-0.00000001		-0.00031588
O		2.84914984		3.07396201		6.46987168		0.00000000		 0.00000001		 0.00031588
O		0.00000000		12.17289013		2.11203774		0.00000000		-0.00022132		-0.00056164
O		0.00000000		0.12295791		6.14456145		0.00000000		 0.00022132		 0.00056164
O		0.00000000		6.27088250		2.11203774		0.00000000		 0.00022133		-0.00056164
O		0.00000000		6.02496554		6.14456145		0.00000000		-0.00022133		 0.00056164
O		2.84914984		6.02496554		6.24033847		0.00000000		-0.00022136		-0.00056159
O		2.84914984		6.27088250		2.01626186		0.00000000		 0.00022136		 0.00056159
O		2.84914984		0.12295791		6.24033847		0.00000000		 0.00022134		-0.00056161
O		2.84914984		12.17289013		2.01626186		0.00000000		-0.00022134		 0.00056161
O		1.49010480		1.50624181		8.19467577		-0.00028218		-0.00025052		-0.00012823
O		4.20819375		10.78960737		0.06192399		 0.00028218		 0.00025052		 0.00012823
O		4.20819375		4.64168278		8.19467577		 0.00028218		 0.00025052		-0.00012823
O		1.49010480		7.65416583		0.06192399		-0.00028218		-0.00025052		 0.00012823
O		4.20819375		7.65416583		0.06192399		 0.00028218		-0.00025052		 0.00012823
O		1.49010480		4.64168278		8.19467577		-0.00028218		 0.00025052		-0.00012823
O		1.49010480		10.78960737		0.06192399		-0.00028218		 0.00025052		 0.00012823
O		4.20819375		1.50624181		8.19467577		 0.00028218		-0.00025052		-0.00012823
O		4.33925464		7.65416583		4.06637560		-0.00028224		-0.00025051		-0.00012819
O		1.35904504		4.64168278		4.19022473		 0.00028224		 0.00025051		 0.00012819
O		1.35904504		10.78960737		4.06637560		 0.00028224		 0.00025051		-0.00012819
O		4.33925464		1.50624181		4.19022473		-0.00028224		-0.00025051		 0.00012819
O		1.35904504		1.50624181		4.19022473		 0.00028224		-0.00025051		 0.00012819
O		4.33925464		10.78960737		4.06637560		-0.00028224		 0.00025051		-0.00012819
O		4.33925464		4.64168278		4.19022473		-0.00028224		 0.00025051		 0.00012819
O		1.35904504		7.65416583		4.06637560		 0.00028224		-0.00025051		-0.00012819
