# total energy = -41270.728242 eV

CRYSTAL
PRIMVEC
		5.69829968		0.00000000		0.00000000
		0.00000000		10.58014699		0.00000000
		0.00000000		0.00000000		8.25659691
PRIMECORD
   56 1
Mg		0.00000000		0.00000000		0.00000000		0.00000000		0.00000000		0.00000000
Mg		0.00000000		5.29007463		0.00000000		0.00000000		0.00000000		0.00000000
Mg		2.84914984		5.29007463		4.12829960		0.00000000		0.00000000		0.00000000
Mg		2.84914984		0.00000000		4.12829960		0.00000000		0.00000000		0.00000000
Mg		0.00000000		2.64503675		8.00972777		0.00000000		-0.00000002		 0.00001001
Mg		0.00000000		7.93511138		0.24687200		0.00000000		 0.00000002		-0.00001001
Mg		2.84914984		7.93511138		3.88142760		0.00000000		 0.00000004		 0.00001002
Mg		2.84914984		2.64503675		4.37517273		0.00000000		-0.00000004		-0.00001002
Mg		1.42457492		1.35002692		2.06414980		 0.00000002		-0.00075122		 0.00000004
Mg		4.27372476		9.23012121		6.19244939		-0.00000002		 0.00075122		-0.00000004
Mg		4.27372476		3.94004772		2.06414980		-0.00000001		 0.00075115		 0.00000001
Mg		1.42457492		6.64010155		6.19244939		 0.00000001		-0.00075115		-0.00000001
Mg		4.27372476		6.64010155		6.19244939		-0.00000001		-0.00075115		-0.00000001
Mg		1.42457492		3.94004772		2.06414980		 0.00000001		 0.00075115		 0.00000001
Mg		1.42457492		9.23012121		6.19244939		 0.00000002		 0.00075122		-0.00000004
Mg		4.27372476		1.35002692		2.06414980		-0.00000002		-0.00075122		 0.00000004
Si		0.00000000		1.26750186		5.09267072		-0.00000000		-0.00007638		 0.00050535
Si		0.00000000		9.31264741		3.16392904		-0.00000000		 0.00007638		-0.00050535
Si		0.00000000		4.02257277		5.09267072		0.00000000		 0.00007634		 0.00050568
Si		0.00000000		6.55757649		3.16392904		0.00000000		-0.00007634		-0.00050568
Si		2.84914984		6.55757649		0.96437112		0.00000000		-0.00007639		 0.00050583
Si		2.84914984		4.02257277		7.29222864		0.00000000		 0.00007639		-0.00050583
Si		2.84914984		9.31264741		0.96437112		0.00000000		 0.00007670		 0.00050606
Si		2.84914984		1.26750186		7.29222864		0.00000000		-0.00007670		-0.00050606
O		0.00000000		2.64503675		1.78838002		0.00000000		-0.00000000		 0.00030113
O		0.00000000		7.93511138		6.46822089		0.00000000		0.00000000		-0.00030113
O		2.84914984		7.93511138		5.91667961		0.00000000		-0.00000004		 0.00030123
O		2.84914984		2.64503675		2.33992072		0.00000000		 0.00000004		-0.00030123
O		0.00000000		2.64503675		5.91502881		0.00000000		 0.00000018		-0.00011994
O		0.00000000		7.93511138		2.34157209		0.00000000		-0.00000018		 0.00011994
O		2.84914984		7.93511138		1.78672865		-0.00000000		-0.00000010		-0.00012000
O		2.84914984		2.64503675		6.46987168		-0.00000000		 0.00000010		 0.00012000
O		0.00000000		10.47434723		2.11203774		0.00000000		-0.00029922		 0.00008885
O		0.00000000		0.10580090		6.14456145		0.00000000		 0.00029922		-0.00008885
O		0.00000000		5.39587553		2.11203774		0.00000000		 0.00029936		 0.00008892
O		0.00000000		5.18427259		6.14456145		0.00000000		-0.00029936		-0.00008892
O		2.84914984		5.18427259		6.24033847		0.00000000		-0.00029941		 0.00008903
O		2.84914984		5.39587553		2.01626186		0.00000000		 0.00029941		-0.00008903
O		2.84914984		0.10580090		6.24033847		0.00000000		 0.00029958		 0.00008920
O		2.84914984		10.47434723		2.01626186		0.00000000		-0.00029958		-0.00008920
O		1.49010480		1.29606801		8.19467577		-0.00019540		-0.00002666		-0.00042449
O		4.20819375		9.28408069		0.06192399		 0.00019540		 0.00002666		 0.00042449
O		4.20819375		3.99400663		8.19467577		 0.00019531		 0.00002667		-0.00042456
O		1.49010480		6.58614264		0.06192399		-0.00019531		-0.00002667		 0.00042456
O		4.20819375		6.58614264		0.06192399		 0.00019531		-0.00002667		 0.00042456
O		1.49010480		3.99400663		8.19467577		-0.00019531		 0.00002667		-0.00042456
O		1.49010480		9.28408069		0.06192399		-0.00019540		 0.00002666		 0.00042449
O		4.20819375		1.29606801		8.19467577		 0.00019540		-0.00002666		-0.00042449
O		4.33925464		6.58614264		4.06637560		-0.00019530		-0.00002669		-0.00042460
O		1.35904504		3.99400663		4.19022473		 0.00019530		 0.00002669		 0.00042460
O		1.35904504		9.28408069		4.06637560		 0.00019520		 0.00002665		-0.00042464
O		4.33925464		1.29606801		4.19022473		-0.00019520		-0.00002665		 0.00042464
O		1.35904504		1.29606801		4.19022473		 0.00019520		-0.00002665		 0.00042464
O		4.33925464		9.28408069		4.06637560		-0.00019520		 0.00002665		-0.00042464
O		4.33925464		3.99400663		4.19022473		-0.00019530		 0.00002669		 0.00042460
O		1.35904504		6.58614264		4.06637560		 0.00019530		-0.00002669		-0.00042460
