# total energy = -41274.7957672 eV

CRYSTAL
PRIMVEC
		5.69829968		0.00000000		0.00000000
		0.00000000		11.15205114		0.00000000
		0.00000000		0.00000000		8.25659691
PRIMECORD
   56 1
Mg		0.00000000		0.00000000		0.00000000		0.00000000		0.00000000		0.00000000
Mg		0.00000000		5.57602443		0.00000000		0.00000000		0.00000000		0.00000000
Mg		2.84914984		5.57602443		4.12829960		0.00000000		0.00000000		0.00000000
Mg		2.84914984		0.00000000		4.12829960		0.00000000		0.00000000		0.00000000
Mg		0.00000000		2.78801164		8.00972777		0.00000000		-0.00004617		 0.00066189
Mg		0.00000000		8.36403664		0.24687200		0.00000000		 0.00004617		-0.00066189
Mg		2.84914984		8.36403664		3.88142760		-0.00000000		 0.00004618		 0.00066185
Mg		2.84914984		2.78801164		4.37517273		-0.00000000		-0.00004618		-0.00066185
Mg		1.42457492		1.42300219		2.06414980		-0.00000000		-0.00034059		0.00000000
Mg		4.27372476		9.72904724		6.19244939		0.00000000		 0.00034059		-0.00000000
Mg		4.27372476		4.15302281		2.06414980		0.00000000		 0.00026728		0.00000000
Mg		1.42457492		6.99902662		6.19244939		-0.00000000		-0.00026728		-0.00000000
Mg		4.27372476		6.99902662		6.19244939		0.00000000		-0.00026728		-0.00000000
Mg		1.42457492		4.15302281		2.06414980		-0.00000000		 0.00026728		0.00000000
Mg		1.42457492		9.72904724		6.19244939		-0.00000000		 0.00034059		-0.00000000
Mg		4.27372476		1.42300219		2.06414980		0.00000000		-0.00034059		0.00000000
Si		0.00000000		1.33601594		5.09267072		0.00000000		 0.00015501		 0.00015706
Si		0.00000000		9.81603349		3.16392904		0.00000000		-0.00015501		-0.00015706
Si		0.00000000		4.24000849		5.09267072		-0.00000000		-0.00008626		 0.00015926
Si		0.00000000		6.91203980		3.16392904		-0.00000000		 0.00008626		-0.00015926
Si		2.84914984		6.91203980		0.96437112		-0.00000000		 0.00008625		 0.00015928
Si		2.84914984		4.24000849		7.29222864		-0.00000000		-0.00008625		-0.00015928
Si		2.84914984		9.81603349		0.96437112		0.00000000		-0.00015500		 0.00015710
Si		2.84914984		1.33601594		7.29222864		0.00000000		 0.00015500		-0.00015710
O		0.00000000		2.78801164		1.78838002		0.00000000		-0.00004882		-0.00016481
O		0.00000000		8.36403664		6.46822089		0.00000000		 0.00004882		 0.00016481
O		2.84914984		8.36403664		5.91667961		-0.00000000		 0.00004883		-0.00016476
O		2.84914984		2.78801164		2.33992072		-0.00000000		-0.00004883		 0.00016476
O		0.00000000		2.78801164		5.91502881		0.00000000		 0.00002872		 0.00029903
O		0.00000000		8.36403664		2.34157209		0.00000000		-0.00002872		-0.00029903
O		2.84914984		8.36403664		1.78672865		0.00000000		-0.00002872		 0.00029910
O		2.84914984		2.78801164		6.46987168		0.00000000		 0.00002872		-0.00029910
O		0.00000000		11.04052858		2.11203774		0.00000000		-0.00055767		-0.00039888
O		0.00000000		0.11151971		6.14456145		0.00000000		 0.00055767		 0.00039888
O		0.00000000		5.68754471		2.11203774		0.00000000		 0.00048879		-0.00040153
O		0.00000000		5.46450358		6.14456145		0.00000000		-0.00048879		 0.00040153
O		2.84914984		5.46450358		6.24033847		0.00000000		-0.00048881		-0.00040154
O		2.84914984		5.68754471		2.01626186		0.00000000		 0.00048881		 0.00040154
O		2.84914984		0.11151971		6.24033847		0.00000000		 0.00055769		-0.00039887
O		2.84914984		11.04052858		2.01626186		0.00000000		-0.00055769		 0.00039887
O		1.49010480		1.36612575		8.19467577		-0.00049261		 0.00000663		-0.00049580
O		4.20819375		9.78592368		0.06192399		 0.00049261		-0.00000663		 0.00049580
O		4.20819375		4.20989868		8.19467577		 0.00049008		 0.00000212		-0.00049051
O		1.49010480		6.94215075		0.06192399		-0.00049008		-0.00000212		 0.00049051
O		4.20819375		6.94215075		0.06192399		 0.00049008		-0.00000212		 0.00049051
O		1.49010480		4.20989868		8.19467577		-0.00049008		 0.00000212		-0.00049051
O		1.49010480		9.78592368		0.06192399		-0.00049261		-0.00000663		 0.00049580
O		4.20819375		1.36612575		8.19467577		 0.00049261		 0.00000663		-0.00049580
O		4.33925464		6.94215075		4.06637560		-0.00049010		-0.00000211		-0.00049052
O		1.35904504		4.20989868		4.19022473		 0.00049010		 0.00000211		 0.00049052
O		1.35904504		9.78592368		4.06637560		 0.00049263		-0.00000664		-0.00049580
O		4.33925464		1.36612575		4.19022473		-0.00049263		 0.00000664		 0.00049580
O		1.35904504		1.36612575		4.19022473		 0.00049263		 0.00000664		 0.00049580
O		4.33925464		9.78592368		4.06637560		-0.00049263		-0.00000664		-0.00049580
O		4.33925464		4.20989868		4.19022473		-0.00049010		 0.00000211		 0.00049052
O		1.35904504		6.94215075		4.06637560		 0.00049010		-0.00000211		-0.00049052
