# total energy = -24714.803872 eV	

CRYSTAL	
PRIMVEC	
		9.20099977		0.00000000		0.00000000	
		0.00000000		8.40547213		0.00000000	
		-0.97849872		0.00000000		4.80947299	
PRIMCOORD
   40 1	
Si		2.54259968		0.76910053		1.01576001		 0.00030786		 0.00025089		 0.00021736	
Si		5.67990229		7.63637344		3.79371022		-0.00030786		-0.00025089		-0.00021736	
Si		6.16915073		0.76910053		1.38897464		-0.00030822		 0.00025119		-0.00021770	
Si		2.05335124		7.63637344		3.42049467		 0.00030822		-0.00025119		 0.00021770	
Si		7.14309956		4.97183752		1.01576001		 0.00034112		 0.00027010		 0.00023390	
Si		1.07940241		3.43363646		3.79371022		-0.00034112		-0.00027010		-0.00023390	
Si		1.56865085		4.97183752		1.38897464		-0.00034111		 0.00027009		-0.00023393	
Si		6.65385112		3.43363646		3.42049467		 0.00034111		-0.00027009		 0.00023393	
Mg		-0.24462422		7.61283912		1.20236825		0.00000000		 0.00074274		-0.00000001	
Mg		-0.73387266		0.79263577		3.60710290		-0.00000000		-0.00074274		 0.00000001	
Mg		4.35587567		3.41010214		1.20236825		 0.00000001		 0.00074081		 0.00000002	
Mg		3.86662722		4.99537367		3.60710290		-0.00000001		-0.00074081		-0.00000002	
Mg		-0.24462422		2.30478052		1.20236825		-0.00000000		-0.00018670		 0.00000001	
Mg		-0.73387266		6.10069346		3.60710290		0.00000000		 0.00018670		-0.00000001	
Mg		4.35587567		6.50751842		1.20236825		0.00000000		-0.00018448		-0.00000003	
Mg		3.86662722		1.89795555		3.60710290		-0.00000000		 0.00018448		 0.00000003	
O		0.98190953		0.76825956		0.66851612		-0.00026124		-0.00042846		 0.00035281	
O		7.24059152		7.63721441		4.14095411		 0.00026124		 0.00042846		-0.00035281	
O		7.72984088		0.76825956		1.73621854		 0.00026148		-0.00042848		-0.00035273	
O		0.49266109		7.63721441		3.07325170		-0.00026148		 0.00042848		 0.00035273	
O		5.58241126		4.97099746		0.66851612		-0.00028297		-0.00043032		 0.00034678	
O		2.64009163		3.43447651		4.14095411		 0.00028297		 0.00043032		-0.00034678	
O		3.12934099		4.97099746		1.73621854		 0.00028298		-0.00043037		-0.00034675	
O		5.09316190		3.43447651		3.07325170		-0.00028298		 0.00043037		 0.00034675	
O		3.13727133		1.99714141		1.76507563		 0.00011961		 0.00001044		-0.00006805	
O		5.08523064		6.40833440		3.04439460		-0.00011961		-0.00001044		 0.00006805	
O		5.57448000		1.99714141		0.63965994		-0.00011949		 0.00001015		 0.00006826	
O		2.64802197		6.40833440		4.16981121		 0.00011949		-0.00001015		-0.00006826	
O		7.73777122		6.19987747		1.76507563		 0.00010639		-0.00001024		-0.00007942	
O		0.48473075		2.20559650		3.04439460		-0.00010639		 0.00001024		 0.00007942	
O		0.97398011		6.19987747		0.63965994		-0.00010639		-0.00001024		 0.00007943	
O		7.24852278		2.20559650		4.16981121		 0.00010639		 0.00001024		-0.00007943	
O		2.38943063		0.51525599		4.40066613		 0.00052969		-0.00006746		 0.00005061	
O		5.83307042		7.89021982		0.40880502		-0.00052969		 0.00006746		-0.00005061	
O		5.34382197		0.51525599		2.81353968		-0.00052969		-0.00006744		-0.00005063	
O		2.87867999		7.89021982		1.99592964		 0.00052969		 0.00006744		 0.00005063	
O		6.98993144		4.71799297		4.40066613		 0.00052495		-0.00006991		 0.00004927	
O		1.23257053		3.68748192		0.40880502		-0.00052495		 0.00006991		-0.00004927	
O		0.74332209		4.71799297		2.81353968		-0.00052496		-0.00006991		-0.00004929	
O		7.47918080		3.68748192		1.99592964		 0.00052496		 0.00006991		 0.00004929	
