# total energy = -24709.4047646 eV	

CRYSTAL	
PRIMVEC	
		9.20099977		0.00000000		0.00000000	
		0.00000000		7.75889947		0.00000000	
		-0.97849872		0.00000000		4.80947299	
PRIMCOORD
   40 1	
Si		2.54259968		0.70993902		1.01576001		-0.00058629		-0.00060028		-0.00050921	
Si		5.67990229		7.04896045		3.79371022		 0.00058629		 0.00060028		 0.00050921	
Si		6.16915073		0.70993902		1.38897464		-0.00000760		-0.00006608		-0.00008822	
Si		2.05335124		7.04896045		3.42049467		 0.00000760		 0.00006608		 0.00008822	
Si		7.14309956		4.58938876		1.01576001		-0.00034387		-0.00039593		-0.00033651	
Si		1.07940241		3.16951072		3.79371022		 0.00034387		 0.00039593		 0.00033651	
Si		1.56865085		4.58938876		1.38897464		-0.00017952		 0.00007625		-0.00019421	
Si		6.65385112		3.16951072		3.42049467		 0.00017952		-0.00007625		 0.00019421	
Mg		-0.24462422		7.02723597		1.20236825		-0.00000103		 0.00021684		-0.00000576	
Mg		-0.73387266		0.73166442		3.60710290		 0.00000103		-0.00021684		 0.00000576	
Mg		4.35587567		3.14778624		1.20236825		-0.00000393		 0.00019239		-0.00000209	
Mg		3.86662722		4.61111416		3.60710290		 0.00000393		-0.00019239		 0.00000209	
Mg		-0.24462422		2.12749013		1.20236825		-0.00000190		 0.00063628		-0.00002167	
Mg		-0.73387266		5.63141026		3.60710290		 0.00000190		-0.00063628		 0.00002167	
Mg		4.35587567		6.00693987		1.20236825		-0.00000226		 0.00066323		-0.00002216	
Mg		3.86662722		1.75195961		3.60710290		 0.00000226		-0.00066323		 0.00002216	
O		0.98190953		0.70916338		0.66851612		-0.00005122		-0.00014620		-0.00012861	
O		7.24059152		7.04973702		4.14095411		 0.00005122		 0.00014620		 0.00012861	
O		7.72984088		0.70916338		1.73621854		 0.00047165		-0.00018353		 0.00029217	
O		0.49266109		7.04973702		3.07325170		-0.00047165		 0.00018353		-0.00029217	
O		5.58241126		4.58861403		0.66851612		-0.00018397		-0.00016019		-0.00016507	
O		2.64009163		3.17028728		4.14095411		 0.00018397		 0.00016019		 0.00016507	
O		3.12934099		4.58861403		1.73621854		 0.00056192		-0.00020082		 0.00031740	
O		5.09316190		3.17028728		3.07325170		-0.00056192		 0.00020082		-0.00031740	
O		3.13727133		1.84351507		1.76507563		 0.00013858		 0.00034975		-0.00007977	
O		5.08523064		5.91538624		3.04439460		-0.00013858		-0.00034975		 0.00007977	
O		5.57448000		1.84351507		0.63965994		 0.00012206		-0.00019406		 0.00044375	
O		2.64802197		5.91538624		4.16981121		-0.00012206		 0.00019406		-0.00044375	
O		7.73777122		5.72296481		1.76507563		 0.00003181		 0.00014123		-0.00019354	
O		0.48473075		2.03593466		3.04439460		-0.00003181		-0.00014123		 0.00019354	
O		0.97398011		5.72296481		0.63965994		 0.00019610		-0.00033609		 0.00051554	
O		7.24852278		2.03593466		4.16981121		-0.00019610		 0.00033609		-0.00051554	
O		2.38943063		0.47562084		4.40066613		-0.00012550		-0.00002822		 0.00005821	
O		5.83307042		7.28327955		0.40880502		 0.00012550		 0.00002822		-0.00005821	
O		5.34382197		0.47562084		2.81353968		 0.00008271		-0.00003373		-0.00003734	
O		2.87867999		7.28327955		1.99592964		-0.00008271		 0.00003373		 0.00003734	
O		6.98993144		4.35507058		4.40066613		-0.00014077		-0.00004499		 0.00004284	
O		1.23257053		3.40382890		0.40880502		 0.00014077		 0.00004499		-0.00004284	
O		0.74332209		4.35507058		2.81353968		 0.00010229		-0.00005056		-0.00002602	
O		7.47918080		3.40382890		1.99592964		-0.00010229		 0.00005056		 0.00002602	
