# total energy = -24716.2560334 eV	

CRYSTAL	
PRIMVEC	
		9.20099977		0.00000000		0.00000000	
		0.00000000		9.05205399		0.00000000	
		-0.97849872		0.00000000		4.80947299	
PRIMCOORD
   40 1	
Si		2.54259968		0.82826296		1.01576001		 0.00014032		 0.00042676		-0.00036141	
Si		5.67990229		8.22378735		3.79371022		-0.00014032		-0.00042676		 0.00036141	
Si		6.16915073		0.82826296		1.38897464		-0.00014068		 0.00042722		 0.00036108	
Si		2.05335124		8.22378735		3.42049467		 0.00014068		-0.00042722		-0.00036108	
Si		7.14309956		5.35428811		1.01576001		 0.00009428		 0.00039823		-0.00038373	
Si		1.07940241		3.69776312		3.79371022		-0.00009428		-0.00039823		 0.00038373	
Si		1.56865085		5.35428811		1.38897464		-0.00009451		 0.00039855		 0.00038350	
Si		6.65385112		3.69776312		3.42049467		 0.00009451		-0.00039855		-0.00038350	
Mg		-0.24462422		8.19844135		1.20236825		 0.00000003		 0.00089400		-0.00000001	
Mg		-0.73387266		0.85360803		3.60710290		-0.00000003		-0.00089400		 0.00000001	
Mg		4.35587567		3.67241712		1.20236825		 0.00000002		 0.00089676		-0.00000000	
Mg		3.86662722		5.37963319		3.60710290		-0.00000002		-0.00089676		0.00000000	
Mg		-0.24462422		2.48207182		1.20236825		-0.00000002		-0.00003813		-0.00000000	
Mg		-0.73387266		6.56997757		3.60710290		 0.00000002		 0.00003813		0.00000000	
Mg		4.35587567		7.00809697		1.20236825		-0.00000001		-0.00004262		-0.00000001	
Mg		3.86662722		2.04395333		3.60710290		 0.00000001		 0.00004262		 0.00000001	
O		0.98190953		0.82735666		0.66851612		-0.00035700		 0.00034671		-0.00010060	
O		7.24059152		8.22469273		4.14095411		 0.00035700		-0.00034671		 0.00010060	
O		7.72984088		0.82735666		1.73621854		 0.00035726		 0.00034666		 0.00010066	
O		0.49266109		8.22469273		3.07325170		-0.00035726		-0.00034666		-0.00010066	
O		5.58241126		5.35338273		0.66851612		-0.00032688		 0.00034847		-0.00009510	
O		2.64009163		3.69866757		4.14095411		 0.00032688		-0.00034847		 0.00009510	
O		3.12934099		5.35338273		1.73621854		 0.00032701		 0.00034843		 0.00009512	
O		5.09316190		3.69866757		3.07325170		-0.00032701		-0.00034843		-0.00009512	
O		3.13727133		2.15076682		1.76507563		 0.00005987		-0.00036318		 0.00012724	
O		5.08523064		6.90128257		3.04439460		-0.00005987		 0.00036318		-0.00012724	
O		5.57448000		2.15076682		0.63965994		-0.00005972		-0.00036353		-0.00012703	
O		2.64802197		6.90128257		4.16981121		 0.00005972		 0.00036353		 0.00012703	
O		7.73777122		6.67679197		1.76507563		 0.00007811		-0.00033445		 0.00014259	
O		0.48473075		2.37525833		3.04439460		-0.00007811		 0.00033445		-0.00014259	
O		0.97398011		6.67679197		0.63965994		-0.00007802		-0.00033466		-0.00014243	
O		7.24852278		2.37525833		4.16981121		 0.00007802		 0.00033466		 0.00014243	
O		2.38943063		0.55489113		4.40066613		 0.00043621		-0.00011408		-0.00024377	
O		5.83307042		8.49716009		0.40880502		-0.00043621		 0.00011408		 0.00024377	
O		5.34382197		0.55489113		2.81353968		-0.00043623		-0.00011416		 0.00024385	
O		2.87867999		8.49716009		1.99592964		 0.00043623		 0.00011416		-0.00024385	
O		6.98993144		5.08091629		4.40066613		 0.00044344		-0.00011117		-0.00024188	
O		1.23257053		3.97113402		0.40880502		-0.00044344		 0.00011117		 0.00024188	
O		0.74332209		5.08091629		2.81353968		-0.00044346		-0.00011124		 0.00024196	
O		7.47918080		3.97113402		1.99592964		 0.00044346		 0.00011124		-0.00024196	
