# total energy = -24714.5918286 eV	

CRYSTAL	
PRIMVEC	
		9.20099977		0.00000000		0.00000000	
		0.00000000		8.62099635		0.00000000	
		-0.97849872		0.00000000		5.29041845	
PRIMCOORD
   40 1	
Si		2.54259968		0.78882195		1.11733629		 0.00023400		 0.00037066		 0.00001913	
Si		5.67990229		7.83217900		4.17308124		-0.00023400		-0.00037066		-0.00001913	
Si		6.16915073		0.78882195		1.52787294		-0.00023341		 0.00037020		-0.00001861	
Si		2.05335124		7.83217900		3.76254459		 0.00023341		-0.00037020		 0.00001861	
Si		7.14309956		5.09932197		1.11733629		-0.00016916		 0.00015333		-0.00018284	
Si		1.07940241		3.52167898		4.17308124		 0.00016916		-0.00015333		 0.00018284	
Si		1.56865085		5.09932197		1.52787294		 0.00016954		 0.00015293		 0.00018325	
Si		6.65385112		3.52167898		3.76254459		-0.00016954		-0.00015293		-0.00018325	
Mg		-0.24462422		7.80804017		1.32260415		-0.00000002		-0.00014751		 0.00000003	
Mg		-0.73387266		0.81295986		3.96781246		 0.00000002		 0.00014751		-0.00000003	
Mg		4.35587567		3.49754016		1.32260415		-0.00000001		-0.00012048		 0.00000001	
Mg		3.86662722		5.12345987		3.96781246		 0.00000001		 0.00012048		-0.00000001	
Mg		-0.24462422		2.36387762		1.32260415		 0.00000002		-0.00003472		 0.00000002	
Mg		-0.73387266		6.25712149		3.96781246		-0.00000002		 0.00003472		-0.00000002	
Mg		4.35587567		6.67437763		1.32260415		 0.00000004		-0.00006707		 0.00000003	
Mg		3.86662722		1.94662240		3.96781246		-0.00000004		 0.00006707		-0.00000003	
O		0.98190953		0.78795890		0.73536782		 0.00024637		 0.00011681		-0.00013288	
O		7.24059152		7.83304113		4.55504879		-0.00024637		-0.00011681		 0.00013288	
O		7.72984088		0.78795890		1.90984140		-0.00024675		 0.00011681		 0.00013277	
O		0.49266109		7.83304113		3.38057705		 0.00024675		-0.00011681		-0.00013277	
O		5.58241126		5.09845983		0.73536782		 0.00050985		 0.00013539		-0.00006987	
O		2.64009163		3.52254112		4.55504879		-0.00050985		-0.00013539		 0.00006987	
O		3.12934099		5.09845983		1.90984140		-0.00051010		 0.00013540		 0.00006979	
O		5.09316190		3.52254112		3.38057705		 0.00051010		-0.00013540		-0.00006979	
O		3.13727133		2.04834957		1.94158301		-0.00047392		 0.00040606		 0.00009675	
O		5.08523064		6.57265046		3.34883360		 0.00047392		-0.00040606		-0.00009675	
O		5.57448000		2.04834957		0.70362530		 0.00047376		 0.00040652		-0.00009707	
O		2.64802197		6.57265046		4.58679224		-0.00047376		-0.00040652		 0.00009707	
O		7.73777122		6.35884959		1.94158301		-0.00032728		 0.00063644		 0.00021562	
O		0.48473075		2.26214952		3.34883360		 0.00032728		-0.00063644		-0.00021562	
O		0.97398011		6.35884959		0.70362530		 0.00032713		 0.00063677		-0.00021585	
O		7.24852278		2.26214952		4.58679224		-0.00032713		-0.00063677		 0.00021585	
O		2.38943063		0.52846678		4.84073155		-0.00039602		-0.00018426		-0.00008029	
O		5.83307042		8.09253325		0.44968506		 0.00039602		 0.00018426		 0.00008029	
O		5.34382197		0.52846678		3.09489429		 0.00039609		-0.00018426		 0.00008039	
O		2.87867999		8.09253325		2.19552324		-0.00039609		 0.00018426		-0.00008039	
O		6.98993144		4.83896680		4.84073155		-0.00033909		-0.00016076		-0.00005720	
O		1.23257053		3.78203323		0.44968506		 0.00033909		 0.00016076		 0.00005720	
O		0.74332209		4.83896680		3.09489429		 0.00033907		-0.00016072		 0.00005724	
O		7.47918080		3.78203323		2.19552324		-0.00033907		 0.00016072		-0.00005724	
