# total energy = -24715.4798221 eV	

CRYSTAL	
PRIMVEC	
		9.20099977		0.00000000		0.00000000	
		0.00000000		8.62099635		0.00000000	
		-0.97849872		0.00000000		5.17017979	
PRIMCOORD
   40 1	
Si		2.54259968		0.78882195		1.09194153		-0.00024841		 0.00028533		 0.00018484	
Si		5.67990229		7.83217900		4.07823918		 0.00024841		-0.00028533		-0.00018484	
Si		6.16915073		0.78882195		1.49314836		 0.00024845		 0.00028527		-0.00018478	
Si		2.05335124		7.83217900		3.67703326		-0.00024845		-0.00028527		 0.00018478	
Si		7.14309956		5.09932197		1.09194153		 0.00027464		 0.00057274		 0.00044975	
Si		1.07940241		3.52167898		4.07823918		-0.00027464		-0.00057274		-0.00044975	
Si		1.56865085		5.09932197		1.49314836		-0.00027456		 0.00057269		-0.00044971	
Si		6.65385112		3.52167898		3.67703326		 0.00027456		-0.00057269		 0.00044971	
Mg		-0.24462422		7.80804017		1.29254541		0.00000000		 0.00041283		 0.00000001	
Mg		-0.73387266		0.81295986		3.87763622		-0.00000000		-0.00041283		-0.00000001	
Mg		4.35587567		3.49754016		1.29254541		0.00000000		 0.00037831		 0.00000001	
Mg		3.86662722		5.12345987		3.87763622		-0.00000000		-0.00037831		-0.00000001	
Mg		-0.24462422		2.36387762		1.29254541		0.00000000		 0.00000900		0.00000000	
Mg		-0.73387266		6.25712149		3.87763622		-0.00000000		-0.00000900		-0.00000000	
Mg		4.35587567		6.67437763		1.29254541		0.00000000		 0.00005852		-0.00000000	
Mg		3.86662722		1.94662240		3.87763622		-0.00000000		-0.00005852		0.00000000	
O		0.98190953		0.78795890		0.71865513		-0.00016624		 0.00021256		-0.00032761	
O		7.24059152		7.83304113		4.45152558		 0.00016624		-0.00021256		 0.00032761	
O		7.72984088		0.78795890		1.86643477		 0.00016619		 0.00021255		 0.00032762	
O		0.49266109		7.83304113		3.30374502		-0.00016619		-0.00021255		-0.00032762	
O		5.58241126		5.09845983		0.71865513		-0.00051183		 0.00018765		-0.00040585	
O		2.64009163		3.52254112		4.45152558		 0.00051183		-0.00018765		 0.00040585	
O		3.12934099		5.09845983		1.86643477		 0.00051183		 0.00018762		 0.00040588	
O		5.09316190		3.52254112		3.30374502		-0.00051183		-0.00018762		-0.00040588	
O		3.13727133		2.04834957		1.89745594		 0.00062580		 0.00034010		-0.00012631	
O		5.08523064		6.57265046		3.27272385		-0.00062580		-0.00034010		 0.00012631	
O		5.57448000		2.04834957		0.68763396		-0.00062579		 0.00034011		 0.00012635	
O		2.64802197		6.57265046		4.48254675		 0.00062579		-0.00034011		-0.00012635	
O		7.73777122		6.35884959		1.89745594		 0.00043561		 0.00003883		-0.00028890	
O		0.48473075		2.26214952		3.27272385		-0.00043561		-0.00003883		 0.00028890	
O		0.97398011		6.35884959		0.68763396		-0.00043565		 0.00003893		 0.00028889	
O		7.24852278		2.26214952		4.48254675		 0.00043565		-0.00003893		-0.00028889	
O		2.38943063		0.52846678		4.73071520		 0.00018302		-0.00042692		 0.00047342	
O		5.83307042		8.09253325		0.43946459		-0.00018302		 0.00042692		-0.00047342	
O		5.34382197		0.52846678		3.02455633		-0.00018301		-0.00042690		-0.00047343	
O		2.87867999		8.09253325		2.14562530		 0.00018301		 0.00042690		 0.00047343	
O		6.98993144		4.83896680		4.73071520		 0.00010639		-0.00045979		 0.00044359	
O		1.23257053		3.78203323		0.43946459		-0.00010639		 0.00045979		-0.00044359	
O		0.74332209		4.83896680		3.02455633		-0.00010639		-0.00045979		-0.00044357	
O		7.47918080		3.78203323		2.14562530		 0.00010639		 0.00045979		 0.00044357	
