# total energy = -24713.2451292 eV	

CRYSTAL	
PRIMVEC	
		9.20099977		0.00000000		0.00000000	
		0.00000000		8.62099635		0.00000000	
		-0.97849872		0.00000000		4.56899566	
PRIMCOORD
   40 1	
Si		2.54259968		0.78882195		0.96497233		-0.00076886		-0.00033189		-0.00031532	
Si		5.67990229		7.83217900		3.60402517		 0.00076886		 0.00033189		 0.00031532	
Si		6.16915073		0.78882195		1.31952642		 0.00076901		-0.00033198		 0.00031541	
Si		2.05335124		7.83217900		3.24947108		-0.00076901		 0.00033198		-0.00031541	
Si		7.14309956		5.09932197		0.96497233		 0.00014998		 0.00024888		 0.00009162	
Si		1.07940241		3.52167898		3.60402517		-0.00014998		-0.00024888		-0.00009162	
Si		1.56865085		5.09932197		1.31952642		-0.00015001		 0.00024900		-0.00009169	
Si		6.65385112		3.52167898		3.24947108		 0.00015001		-0.00024900		 0.00009169	
Mg		-0.24462422		7.80804017		1.14224892		0.00000000		-0.00041838		 0.00000001	
Mg		-0.73387266		0.81295986		3.42674767		-0.00000000		 0.00041838		-0.00000001	
Mg		4.35587567		3.49754016		1.14224892		-0.00000000		-0.00048077		-0.00000001	
Mg		3.86662722		5.12345987		3.42674767		0.00000000		 0.00048077		 0.00000001	
Mg		-0.24462422		2.36387762		1.14224892		0.00000000		-0.00037401		-0.00000001	
Mg		-0.73387266		6.25712149		3.42674767		-0.00000000		 0.00037401		 0.00000001	
Mg		4.35587567		6.67437763		1.14224892		-0.00000003		-0.00029308		 0.00000002	
Mg		3.86662722		1.94662240		3.42674767		 0.00000003		 0.00029308		-0.00000002	
O		0.98190953		0.78795890		0.63509073		-0.00014545		-0.00023492		 0.00011788	
O		7.24059152		7.83304113		3.93390585		 0.00014545		 0.00023492		-0.00011788	
O		7.72984088		0.78795890		1.64940802		 0.00014535		-0.00023495		-0.00011792	
O		0.49266109		7.83304113		2.91958856		-0.00014535		 0.00023495		 0.00011792	
O		5.58241126		5.09845983		0.63509073		-0.00073041		-0.00028122		 0.00000149	
O		2.64009163		3.52254112		3.93390585		 0.00073041		 0.00028122		-0.00000149	
O		3.12934099		5.09845983		1.64940802		 0.00073041		-0.00028123		-0.00000149	
O		5.09316190		3.52254112		2.91958856		-0.00073041		 0.00028123		 0.00000149	
O		3.13727133		2.04834957		1.67682240		 0.00014043		 0.00025523		 0.00001288	
O		5.08523064		6.57265046		2.89217510		-0.00014043		-0.00025523		-0.00001288	
O		5.57448000		2.04834957		0.60767727		-0.00014045		 0.00025535		-0.00001294	
O		2.64802197		6.57265046		3.96132023		 0.00014045		-0.00025535		 0.00001294	
O		7.73777122		6.35884959		1.67682240		-0.00020387		-0.00032298		-0.00029596	
O		0.48473075		2.26214952		2.89217510		 0.00020387		 0.00032298		 0.00029596	
O		0.97398011		6.35884959		0.60767727		 0.00020387		-0.00032306		 0.00029602	
O		7.24852278		2.26214952		3.96132023		-0.00020387		 0.00032306		-0.00029602	
O		2.38943063		0.52846678		4.18063158		 0.00006502		 0.00010968		-0.00002721	
O		5.83307042		8.09253325		0.38836500		-0.00006502		-0.00010968		 0.00002721	
O		5.34382197		0.52846678		2.67286283		-0.00006503		 0.00010967		 0.00002726	
O		2.87867999		8.09253325		1.89613375		 0.00006503		-0.00010967		-0.00002726	
O		6.98993144		4.83896680		4.18063158		-0.00006150		 0.00006853		-0.00003965	
O		1.23257053		3.78203323		0.38836500		 0.00006150		-0.00006853		 0.00003965	
O		0.74332209		4.83896680		2.67286283		 0.00006147		 0.00006850		 0.00003967	
O		7.47918080		3.78203323		1.89613375		-0.00006147		-0.00006850		-0.00003967	
