# total energy = -24708.5783523 eV	

CRYSTAL	
PRIMVEC	
		9.20099977		0.00000000		0.00000000	
		0.00000000		8.62099635		0.00000000	
		-0.97849872		0.00000000		4.32851833	
PRIMCOORD
   40 1	
Si		2.54259968		0.78882195		0.91418373		 0.00061135		-0.00008060		 0.00009256	
Si		5.67990229		7.83217900		3.41433920		-0.00061135		 0.00008060		-0.00009256	
Si		6.16915073		0.78882195		1.25007819		-0.00061304		-0.00007829		-0.00009367	
Si		2.05335124		7.83217900		3.07844566		 0.00061304		 0.00007829		 0.00009367	
Si		7.14309956		5.09932197		0.91418373		-0.00059373		-0.00091429		-0.00037514	
Si		1.07940241		3.52167898		3.41433920		 0.00059373		 0.00091429		 0.00037514	
Si		1.56865085		5.09932197		1.25007819		 0.00059333		-0.00091346		 0.00037486	
Si		6.65385112		3.52167898		3.07844566		-0.00059333		 0.00091346		-0.00037486	
Mg		-0.24462422		7.80804017		1.08213142		 0.00000001		-0.00036322		 0.00000002	
Mg		-0.73387266		0.81295986		3.24639335		-0.00000001		 0.00036322		-0.00000002	
Mg		4.35587567		3.49754016		1.08213142		-0.00000002		-0.00027015		 0.00000004	
Mg		3.86662722		5.12345987		3.24639335		 0.00000002		 0.00027015		-0.00000004	
Mg		-0.24462422		2.36387762		1.08213142		-0.00000004		 0.00032740		-0.00000002	
Mg		-0.73387266		6.25712149		3.24639335		 0.00000004		-0.00032740		 0.00000002	
Mg		4.35587567		6.67437763		1.08213142		-0.00000004		 0.00021340		 0.00000002	
Mg		3.86662722		1.94662240		3.24639335		 0.00000004		-0.00021340		-0.00000002	
O		0.98190953		0.78795890		0.60166534		-0.00062840		 0.00002024		-0.00037417	
O		7.24059152		7.83304113		3.72685852		 0.00062840		-0.00002024		 0.00037417	
O		7.72984088		0.78795890		1.56259659		 0.00062948		 0.00002014		 0.00037437	
O		0.49266109		7.83304113		2.76592634		-0.00062948		-0.00002014		-0.00037437	
O		5.58241126		5.09845983		0.60166534		 0.00012051		 0.00008628		-0.00026807	
O		2.64009163		3.52254112		3.72685852		-0.00012051		-0.00008628		 0.00026807	
O		3.12934099		5.09845983		1.56259659		-0.00012015		 0.00008612		 0.00026820	
O		5.09316190		3.52254112		2.76592634		 0.00012015		-0.00008612		-0.00026820	
O		3.13727133		2.04834957		1.58856825		-0.00020561		-0.00028340		-0.00053667	
O		5.08523064		6.57265046		2.73995468		 0.00020561		 0.00028340		 0.00053667	
O		5.57448000		2.04834957		0.57569367		 0.00020644		-0.00028537		 0.00053772	
O		2.64802197		6.57265046		3.75283018		-0.00020644		 0.00028537		-0.00053772	
O		7.73777122		6.35884959		1.58856825		 0.00025657		 0.00052266		-0.00012676	
O		0.48473075		2.26214952		2.73995468		-0.00025657		-0.00052266		 0.00012676	
O		0.97398011		6.35884959		0.57569367		-0.00025638		 0.00052209		 0.00012707	
O		7.24852278		2.26214952		3.75283018		 0.00025638		-0.00052209		-0.00012707	
O		2.38943063		0.52846678		3.96059887		-0.00005119		 0.00018608		 0.00011542	
O		5.83307042		8.09253325		0.36792406		 0.00005119		-0.00018608		-0.00011542	
O		5.34382197		0.52846678		2.53218598		 0.00005119		 0.00018574		-0.00011520	
O		2.87867999		8.09253325		1.79633695		-0.00005119		-0.00018574		 0.00011520	
O		6.98993144		4.83896680		3.96059887		 0.00011332		 0.00021730		 0.00010687	
O		1.23257053		3.78203323		0.36792406		-0.00011332		-0.00021730		-0.00010687	
O		0.74332209		4.83896680		2.53218598		-0.00011336		 0.00021712		-0.00010676	
O		7.47918080		3.78203323		1.79633695		 0.00011336		-0.00021712		 0.00010676	
