# total energy = -12344.9735251 eV

CRYSTAL
PRIMVEC
		4.44489886		-0.35559102		0.00000000
		-0.37318217		4.66479943		0.00000000
		0.00000000		0.00000000		6.45440168
PRIMECORD
   20 1
O		0.29771099		2.18010001		1.61360020		 0.00025568		 0.00001627		0.00000000
O		3.77400525		2.12910885		4.84080015		-0.00025568		-0.00001627		0.00000000
O		2.68846696		-0.10152080		4.84080015		 0.00078859		-0.00024042		0.00000000
O		1.38324883		4.41072921		1.61360020		-0.00078859		 0.00024042		0.00000000
O		0.76461410		0.83754716		3.62801829		 0.00023438		 0.00002040		 0.00025324
O		3.30710214		3.47166125		2.82638205		-0.00023438		-0.00002040		-0.00025324
O		2.94519302		1.18314087		2.82638205		 0.00029624		-0.00009805		 0.00024689
O		1.12652322		3.12606709		3.62801829		-0.00029624		 0.00009805		-0.00024689
O		3.30710214		3.47166125		0.40081790		-0.00023438		-0.00002040		 0.00025324
O		0.76461410		0.83754716		6.05358200		 0.00023438		 0.00002040		-0.00025324
O		1.12652322		3.12606709		6.05358200		-0.00029624		 0.00009805		 0.00024689
O		2.94519302		1.18314087		0.40081790		 0.00029624		-0.00009805		-0.00024689
Mg		2.08626625		2.52924718		1.61360020		 0.00079973		-0.00066013		0.00000000
Mg		1.98544999		1.77996212		4.84080015		-0.00079973		 0.00066013		0.00000000
Mg		-0.26179784		4.27721391		4.84080015		 0.00008952		 0.00016344		0.00000000
Mg		4.33351408		0.03199405		1.61360020		-0.00008952		-0.00016344		0.00000000
Si		2.22244987		-0.17779595		3.22719995		0.00000000		0.00000000		0.00000000
Si		-0.18659198		2.33240016		3.22719995		0.00000000		0.00000000		-0.00000000
Si		2.22244987		-0.17779595		0.00000000		0.00000000		0.00000000		0.00000000
Si		-0.18659198		2.33240016		0.00000000		0.00000000		0.00000000		-0.00000000
