# total energy = -8759.51970289 eV	

CRYSTAL	
PRIMVEC	
		3.04800115		0.48768154		0.00000000	
		-1.10165819		2.39580723		0.00000000	
		0.00000000		0.00000000		12.36199908	
PRIMCOORD
   11 1	
H		0.28156200		1.75976389		5.80643199		 0.00005564		 0.00045025		 0.00052114	
H		1.66478096		1.12372210		6.55556894		-0.00005564		-0.00045025		-0.00052114	
Mg		0.00000000		0.00000000		8.63732995		 0.00005564		-0.00019102		-0.00036869	
Mg		0.00000000		0.00000000		3.72467098		-0.00005564		 0.00019102		 0.00036869	
Mg		1.66478096		1.12372210		11.12703697		-0.00011331		 0.00019183		-0.00009230	
Mg		0.28156200		1.75976389		1.23496397		 0.00011331		-0.00019183		 0.00009230	
O		1.66478096		1.12372210		2.46992793		 0.00024723		-0.00076853		 0.00017550	
O		0.28156200		1.75976389		9.89207300		-0.00024723		 0.00076853		-0.00017550	
O		0.28156200		1.75976389		4.81623513		 0.00021001		-0.00023549		-0.00061194	
O		1.66478096		1.12372210		7.54576518		-0.00021001		 0.00023549		 0.00061194	
O		0.00000000		0.00000000		0.00000000		0.00000000		0.00000000		0.00000000	
