# total energy = -8760.62523178 eV	

CRYSTAL	
PRIMVEC	
		3.04800034		0.36575930		0.00000000	
		-1.20724362		2.45676545		0.00000000	
		0.00000000		0.00000000		12.36199833	
PRIMCOORD
   11 1	
H		0.21117185		1.75976381		5.80643180		 0.00031135		-0.00031962		 0.00084501	
H		1.62958579		1.06276186		6.55556868		-0.00031135		 0.00031962		-0.00084501	
Mg		0.00000000		0.00000000		8.63732961		 0.00032596		 0.00051790		 0.00006759	
Mg		0.00000000		0.00000000		3.72467087		-0.00032596		-0.00051790		-0.00006759	
Mg		1.62958579		1.06276186		11.12703657		-0.00023033		-0.00043962		-0.00048255	
Mg		0.21117185		1.75976381		1.23496390		 0.00023033		 0.00043962		 0.00048255	
O		1.62958579		1.06276186		2.46992781		 0.00065313		-0.00037936		 0.00001331	
O		0.21117185		1.75976381		9.89207236		-0.00065313		 0.00037936		-0.00001331	
O		0.21117185		1.75976381		4.81623484		 0.00014843		-0.00007288		-0.00067004	
O		1.62958579		1.06276186		7.54576472		-0.00014843		 0.00007288		 0.00067004	
O		0.00000000		0.00000000		0.00000000		0.00000000		0.00000000		0.00000000	
