# total energy = -13384.3413567 eV

CRYSTAL
PRIMVEC
		3.05300001		0.00000000		0.00000000
		-1.52650001		2.64397739		0.00000000
		0.00000000		0.00000000		18.11249959
PRIMECORD
   18 1
O		0.00000000		0.00000000		5.63842117		0.00000000		-0.00000000		 0.00002533
O		0.00000000		0.00000000		12.47407812		0.00000000		0.00000000		-0.00002533
O		1.52650001		0.88132508		7.75577315		0.00000000		-0.00000000		-0.00015704
O		0.00000000		1.76264986		10.35672705		-0.00000000		0.00000000		 0.00015704
O		1.52650001		0.88132508		1.30047787		0.00000000		0.00000000		 0.00011904
O		0.00000000		1.76264986		16.81202294		0.00000000		0.00000000		-0.00011904
O		0.00000000		1.76264986		3.41782893		-0.00000000		-0.00000000		 0.00000752
O		1.52650001		0.88132508		14.69467096		0.00000000		0.00000000		-0.00000752
H		1.52650001		0.88132508		8.64690813		0.00000000		-0.00000000		 0.00016277
H		0.00000000		1.76264986		9.46559207		0.00000000		-0.00000000		-0.00016277
H		1.52650001		0.88132508		0.40934288		0.00000000		0.00000000		-0.00013219
H		0.00000000		1.76264986		17.70315793		0.00000000		-0.00000000		 0.00013219
Mg		0.00000000		1.76264986		6.75415101		-0.00000000		-0.00000000		 0.00002795
Mg		1.52650001		0.88132508		11.35834919		0.00000000		0.00000000		-0.00002795
Mg		0.00000000		0.00000000		2.30209909		0.00000000		0.00000000		 0.00005368
Mg		0.00000000		0.00000000		15.81040111		0.00000000		-0.00000000		-0.00005368
Mg		1.52650001		0.88132508		4.52993609		-0.00000000		0.00000000		 0.00004757
Mg		0.00000000		1.76264986		13.58256319		0.00000000		-0.00000000		-0.00004757
