# total energy = -13384.5649912 eV

CRYSTAL
PRIMVEC
		3.05300001		0.00000000		0.00000000
		-1.52650001		2.64397739		0.00000000
		0.00000000		0.00000000		18.61562483
PRIMECORD
   18 1
O		0.00000000		0.00000000		5.79504403		0.00000000		0.00000000		 0.00012454
O		0.00000000		0.00000000		12.82058019		0.00000000		-0.00000000		-0.00012454
O		1.52650001		0.88132508		7.97121115		0.00000000		0.00000000		-0.00023335
O		0.00000000		1.76264986		10.64441399		0.00000000		0.00000000		 0.00023335
O		1.52650001		0.88132508		1.33660188		0.00000000		0.00000000		 0.00010120
O		0.00000000		1.76264986		17.27902295		0.00000000		0.00000000		-0.00010120
O		0.00000000		1.76264986		3.51276899		0.00000000		-0.00000000		-0.00002014
O		1.52650001		0.88132508		15.10285615		0.00000000		0.00000000		 0.00002014
H		1.52650001		0.88132508		8.88709894		0.00000000		0.00000000		 0.00019772
H		0.00000000		1.76264986		9.72852589		0.00000000		0.00000000		-0.00019772
H		1.52650001		0.88132508		0.42071287		0.00000000		-0.00000000		-0.00024986
H		0.00000000		1.76264986		18.19491197		0.00000000		0.00000000		 0.00024986
Mg		0.00000000		1.76264986		6.94176702		0.00000000		0.00000000		-0.00011531
Mg		1.52650001		0.88132508		11.67385812		0.00000000		-0.00000000		 0.00011531
Mg		0.00000000		0.00000000		2.36604601		0.00000000		0.00000000		 0.00015432
Mg		0.00000000		0.00000000		16.24957913		0.00000000		0.00000000		-0.00015432
Mg		1.52650001		0.88132508		4.65576793		-0.00000000		-0.00000000		 0.00016231
Mg		0.00000000		1.76264986		13.95985690		0.00000000		0.00000000		-0.00016231
