# total energy = -9075.22791254 eV

CRYSTAL
PRIMVEC
		5.11310008		0.00000000		0.00000000
		0.00000000		5.18980170		0.00000000
		-0.00383994		0.00000000		7.88006953
PRIMECORD
   28 1
Mg		3.87988016		2.66755698		1.97789795		 0.00027172		-0.00032623		 0.00009484
Mg		1.22938202		0.07265715		5.90217312		-0.00027172		-0.00032623		-0.00009484
Si		1.27731580		0.06746684		1.97001815		 0.00059336		 0.00061215		-0.00013643
Si		3.83194690		2.66236718		5.91005291		-0.00059336		 0.00061215		 0.00013643
O		1.85420490		5.07043433		3.79819430		 0.00009502		-0.00037093		-0.00038905
O		3.25505627		2.47553399		4.08187727		-0.00009502		-0.00037093		 0.00038905
O		4.40885184		2.85439017		7.70670987		-0.00025022		-0.00041385		 0.00000035
O		0.70040983		0.25948983		0.17336221		 0.00025022		-0.00041385		-0.00000035
O		4.63492194		4.16740921		5.46089008		-0.00065098		-0.00013465		 0.00020958
O		0.47434025		1.57250888		2.41918201		 0.00065098		-0.00013465		-0.00020958
O		2.29781695		3.43045810		6.31981727		 0.00056494		 0.00024032		-0.00007666
O		2.81144524		0.83555776		1.56025380		-0.00056494		 0.00024032		 0.00007666
O		4.84599122		4.35424189		2.52162297		 0.00038511		-0.00045213		 0.00010243
O		0.26327097		1.75934206		5.35844912		-0.00038511		-0.00045213		-0.00010243
O		1.99853084		3.65880915		1.41841282		-0.00018382		-0.00052344		-0.00017077
O		3.11073084		1.06390881		6.46165824		 0.00018382		-0.00052344		 0.00017077
H		2.33481023		4.16740921		3.85335494		 0.00004291		 0.00005772		 0.00033562
H		2.77445196		1.57250888		4.02671715		-0.00004291		 0.00005772		-0.00033562
H		4.92013526		3.62766986		7.76186999		 0.00021424		 0.00042503		-0.00038402
H		0.18912692		1.03277003		0.11820107		-0.00021424		 0.00042503		 0.00038402
H		1.56163791		2.83363098		6.09917524		-0.00013249		-0.00007257		 0.00003718
H		3.54762427		0.23873115		1.78089583		 0.00013249		-0.00007257		-0.00003718
H		3.95984700		4.93549911		5.76033214		-0.00002444		 0.00015990		 0.00004157
H		1.14941518		2.34059979		2.11973892		 0.00002444		 0.00015990		-0.00004157
H		4.77904131		4.42170924		3.50663204		-0.00005417		 0.00038801		-0.00007204
H		0.33022088		1.82680993		4.37344005		 0.00005417		 0.00038801		 0.00007204
H		2.10639424		3.59653108		0.41764415		-0.00005027		 0.00041068		-0.00019451
H		3.00286794		1.00163125		7.46242794		 0.00005027		 0.00041068		 0.00019451
