# total energy = -18390.8204231 eV

CRYSTAL
PRIMVEC
		11.41099739		0.00000000		-0.00001111
		0.00000000		6.49964384		0.00000000
		0.00000000		0.00000000		4.92009697
PRIMECORD
   28 1
Mg		0.00000000		0.00000000		0.00000000		 0.00000009		 0.00000015		 0.00000004
Mg		5.70549869		0.00000000		2.46004404		-0.00000008		-0.00000009		 0.00000003
Mg		0.00000000		3.24982192		0.00000000		 0.00000011		-0.00000009		 0.00000004
Mg		5.70549869		3.24982192		2.46004404		-0.00000000		 0.00000011		 0.00000002
Ca		3.17624283		1.62491040		4.83407490		-0.00010127		-0.00000009		-0.00000913
Ca		8.23475456		4.87473232		0.08601318		 0.00010149		 0.00000004		 0.00000914
Ca		2.52936586		4.87473232		2.37402864		 0.00010424		 0.00000006		-0.00000159
Ca		8.88163153		1.62491040		2.54605944		-0.00010408		-0.00000001		 0.00000165
Si		0.93414417		1.62491040		2.01019492		 0.00017134		 0.00000009		-0.00011187
Si		10.47685211		4.87473232		2.90989316		-0.00017063		 0.00000011		 0.00011162
Si		4.77148340		4.87473232		4.47025896		-0.00016809		 0.00000015		-0.00011033
Si		6.63951288		1.62491040		0.44982912		 0.00016768		 0.00000014		 0.00011005
O		0.89304680		1.62491040		3.64880037		 0.00030662		 0.00000004		-0.00028344
O		10.51794948		4.87473232		1.27128659		-0.00030792		 0.00000011		 0.00028355
O		4.81248856		4.87473232		1.18876189		-0.00031294		-0.00000004		-0.00028129
O		6.59850883		1.62491040		3.73132619		 0.00031472		 0.00000015		 0.00028123
O		5.14688908		1.62491040		1.21872946		 0.00014168		 0.00000014		-0.00011779
O		6.26410831		4.87473232		3.70135861		-0.00014275		-0.00000009		 0.00011841
O		0.55853407		4.87473232		3.67876906		-0.00017802		 0.00000008		-0.00012174
O		10.85246221		1.62491040		1.24131902		 0.00017798		 0.00000001		 0.00012222
O		1.67656764		0.29873807		1.33574676		 0.00024093		 0.00012947		 0.00019858
O		9.73442864		6.20090577		3.58434021		-0.00024040		-0.00013067		-0.00019881
O		4.02916436		6.20093354		3.79578969		-0.00029411		-0.00013009		 0.00019813
O		7.38183303		0.29871029		1.12429839		 0.00029381		 0.00013121		-0.00019847
O		9.73442864		3.54855887		3.58434021		-0.00024092		 0.00013013		-0.00019863
O		1.67656764		2.95108385		1.33574676		 0.00024101		-0.00012949		 0.00019857
O		7.38183303		2.95111162		1.12429839		 0.00029343		-0.00013175		-0.00019853
O		4.02916436		3.54853221		3.79578969		-0.00029391		 0.00013020		 0.00019832
