# total energy = -38098.6007471 eV	

CRYSTAL	
PRIMVEC	
		5.76861305		0.00000000		0.00000000	
		0.00000000		11.47403241		0.00000000	
		0.00000000		0.00000000		8.20998313	
PRIMCOORD
   58 1	
O		1.49647468		1.43457879		8.21755363		-0.00006469		 0.00005842		-0.00005416	
O		4.27213723		10.03945590		-0.00756822		 0.00006468		-0.00005842		 0.00005413	
O		4.27213723		4.30243913		8.21755363		 0.00006469		-0.00005842		-0.00005415	
O		1.49647468		7.17159613		-0.00756822		-0.00006469		 0.00005843		 0.00005411	
O		1.49647468		10.03945590		-0.00756822		-0.00006469		-0.00005842		 0.00005412	
O		4.27213723		1.43457879		8.21755363		 0.00006469		 0.00005842		-0.00005418	
O		4.27213723		7.17159613		-0.00756822		 0.00006468		 0.00005844		 0.00005413	
O		1.49647468		4.30243856		8.21755363		-0.00006469		-0.00005843		-0.00005417	
O		2.88430596		5.59233043		6.24596677		-0.00000000		 0.00014526		-0.00005000	
O		2.88430596		5.88170426		1.96401921		-0.00000000		-0.00014519		 0.00004998	
O		2.88430596		0.14468692		6.24596620		-0.00000000		-0.00014527		-0.00004998	
O		2.88430596		11.32934777		1.96401921		0.00000000		 0.00014521		 0.00004995	
O		0.00000000		2.86850867		5.83302087		 0.00000001		 0.00000007		 0.00006341	
O		0.00000000		8.60552601		2.37696454		 0.00000001		-0.00000008		-0.00006337	
O		0.00000000		2.86850867		1.96074397		-0.00000000		 0.00000001		 0.00002254	
O		0.00000000		8.60552601		6.24924144		0.00000000		 0.00000001		-0.00002275	
O		2.88430596		8.60552601		5.88750337		-0.00000000		-0.00000000		 0.00029157	
O		2.88430596		2.86850867		2.32248204		0.00000000		-0.00000001		-0.00029091	
O		2.88430596		8.60552601		1.71318829		0.00000000		-0.00000003		 0.00006516	
O		2.88430596		2.86850867		6.49679712		0.00000000		 0.00000004		-0.00006513	
O		0.00000000		11.30422113		2.04460511		-0.00000000		 0.00010046		 0.00002810	
O		0.00000000		0.16981355		6.16538087		-0.00000000		-0.00010055		-0.00002802	
O		0.00000000		5.90683146		2.04460511		-0.00000000		-0.00010051		 0.00002809	
O		0.00000000		5.56720379		6.16538087		-0.00000001		 0.00010061		-0.00002802	
O		4.43562003		7.09621849		4.14234028		-0.00008227		-0.00005095		 0.00006814	
O		1.33299188		4.37781676		4.06764570		 0.00008234		 0.00005095		-0.00006820	
O		1.33299188		10.11483410		4.14234028		 0.00008231		 0.00005093		 0.00006819	
O		4.43562003		1.35920058		4.06764570		-0.00008229		-0.00005094		-0.00006818	
O		4.43562060		4.37781676		4.06764570		-0.00008228		 0.00005095		-0.00006815	
O		1.33299188		7.09621793		4.14234028		 0.00008228		-0.00005096		 0.00006817	
O		1.33299188		1.35920058		4.06764570		 0.00008232		-0.00005095		-0.00006821	
O		4.43562003		10.11483410		4.14234028		-0.00008224		 0.00005094		 0.00006816	
H		2.88430596		8.60552601		4.90291866		 0.00000001		0.00000000		 0.00016325	
H		2.88430596		2.86850867		3.30706675		 0.00000001		-0.00000000		-0.00016384	
H		0.00000000		2.86850867		2.94288392		-0.00000000		-0.00000000		 0.00011670	
H		0.00000000		8.60552601		5.26710149		0.00000000		 0.00000001		-0.00011650	
Mg		2.88430596		5.73701734		4.10499270		-0.00000001		-0.00000002		0.00000000	
Mg		2.88430596		0.00000000		4.10499270		-0.00000000		 0.00000002		-0.00000000	
Mg		0.00000000		0.00000000		0.00000000		0.00000000		 0.00000003		 0.00000001	
Mg		0.00000000		5.73701734		0.00000000		-0.00000000		-0.00000004		 0.00000001	
Mg		1.46513455		1.31845255		2.06622655		 0.00012700		-0.00008991		 0.00010818	
Mg		4.30347736		10.15558214		6.14375886		-0.00012699		 0.00008995		-0.00010817	
Mg		4.30347736		4.41856479		2.06622655		-0.00012697		 0.00008988		 0.00010816	
Mg		1.46513455		7.05546989		6.14375886		 0.00012698		-0.00008991		-0.00010817	
Mg		1.46513455		10.15558214		6.14375886		 0.00012700		 0.00008995		-0.00010818	
Mg		4.30347736		1.31845255		2.06622655		-0.00012699		-0.00008991		 0.00010817	
Mg		4.30347736		7.05546989		6.14375886		-0.00012698		-0.00008992		-0.00010817	
Mg		1.46513455		4.41856479		2.06622655		 0.00012698		 0.00008988		 0.00010817	
Mg		0.00000000		2.86850867		7.83788487		0.00000000		-0.00000003		-0.00002602	
Mg		0.00000000		8.60552601		0.37210054		0.00000000		 0.00000003		 0.00002601	
Si		2.88430596		7.16207951		0.92495939		0.00000000		-0.00011839		 0.00010169	
Si		2.88430596		4.31195575		7.28502602		 0.00000001		 0.00011830		-0.00010163	
Si		2.88430596		10.04897252		0.92495939		 0.00000001		 0.00011846		 0.00010168	
Si		2.88430596		1.42506216		7.28502602		 0.00000001		-0.00011835		-0.00010161	
Si		0.00000000		1.36992678		4.99600157		-0.00000004		-0.00004249		-0.00001857	
Si		0.00000000		10.10410791		3.21398384		-0.00000006		 0.00004256		 0.00001851	
Si		0.00000000		4.36709057		4.99600157		-0.00000008		 0.00004244		-0.00001855	
Si		0.00000000		7.10694469		3.21398384		-0.00000003		-0.00004251		 0.00001849	
