# total energy = -38096.9457905 eV	

CRYSTAL	
PRIMVEC	
		5.96446113		0.00000000		0.00000000	
		0.00000000		11.83601580		0.00000000	
		0.00000000		0.00000000		8.55702477	
PRIMCOORD
   58 1	
O		1.55324085		1.46252244		8.57284653		 0.00007051		 0.00016495		-0.00011693	
O		4.41122255		10.37349450		-0.01581891		-0.00007044		-0.00016501		 0.00011684	
O		4.41122255		4.45548603		8.57284653		-0.00007049		-0.00016495		-0.00011695	
O		1.55324085		7.38053091		-0.01581891		 0.00007041		 0.00016501		 0.00011683	
O		1.55324085		10.37349450		-0.01581891		 0.00007045		-0.00016501		 0.00011682	
O		4.41122255		1.46252244		8.57284653		-0.00007052		 0.00016496		-0.00011693	
O		4.41122255		7.38053091		-0.01581891		-0.00007042		 0.00016500		 0.00011683	
O		1.55324085		4.45548603		8.57284653		 0.00007049		-0.00016494		-0.00011694	
O		2.98223170		5.73294578		6.56579619		0.00000000		 0.00004966		-0.00023954	
O		2.98223170		6.10307116		1.99123143		 0.00000003		-0.00004969		 0.00023952	
O		2.98223170		0.18506269		6.56579619		 0.00000004		-0.00004969		-0.00023962	
O		2.98223170		11.65095425		1.99123143		-0.00000001		 0.00004970		 0.00023955	
O		0.00000000		2.95900452		5.98109344		-0.00000001		-0.00000001		 0.00005516	
O		0.00000000		8.87701299		2.57593360		-0.00000001		 0.00000001		-0.00005517	
O		0.00000000		2.95900452		2.04690187		-0.00000001		 0.00000003		 0.00051922	
O		0.00000000		8.87701299		6.51012347		-0.00000000		-0.00000003		-0.00051365	
O		2.98223170		8.87701299		6.13797056		0.00000000		-0.00000000		 0.00043705	
O		2.98223170		2.95900452		2.41905648		0.00000000		 0.00000001		-0.00043728	
O		2.98223170		8.87701299		1.63268947		 0.00000002		 0.00000009		 0.00000660	
O		2.98223170		2.95900452		6.92433814		 0.00000001		-0.00000008		-0.00000661	
O		0.00000000		11.60941502		2.16162387		 0.00000001		-0.00006554		 0.00001506	
O		0.00000000		0.22660193		6.39540375		-0.00000001		 0.00006564		-0.00001518	
O		0.00000000		6.14461040		2.16162387		-0.00000002		 0.00006555		 0.00001506	
O		0.00000000		5.69140655		6.39540375		0.00000000		-0.00006569		-0.00001517	
O		4.61862787		7.28271673		4.34200548		-0.00018412		-0.00039146		 0.00012555	
O		1.34583553		4.55330021		4.21502213		 0.00018402		 0.00039139		-0.00012553	
O		1.34583553		10.47130868		4.34200548		 0.00018410		 0.00039148		 0.00012555	
O		4.61862787		1.36470826		4.21502213		-0.00018404		-0.00039138		-0.00012551	
O		4.61862787		4.55330021		4.21502213		-0.00018408		 0.00039135		-0.00012554	
O		1.34583553		7.28271730		4.34200548		 0.00018412		-0.00039149		 0.00012555	
O		1.34583553		1.36470826		4.21502213		 0.00018402		-0.00039138		-0.00012551	
O		4.61862787		10.47130868		4.34200548		-0.00018412		 0.00039148		 0.00012557	
H		2.98223170		8.87701242		5.15544639		-0.00000000		-0.00000000		 0.00026730	
H		2.98223170		2.95900452		3.40158065		-0.00000000		0.00000000		-0.00026703	
H		0.00000000		2.95900395		3.02740307		 0.00000001		0.00000000		 0.00069447	
H		0.00000000		8.87701242		5.52962625		 0.00000001		-0.00000000		-0.00069980	
Mg		2.98223170		5.91800847		4.27851352		-0.00000001		 0.00000005		 0.00000003	
Mg		2.98223170		0.00000000		4.27851352		-0.00000000		-0.00000006		 0.00000004	
Mg		0.00000000		0.00000000		0.00000000		-0.00000000		 0.00000006		 0.00000001	
Mg		0.00000000		5.91800847		0.00000000		-0.00000001		-0.00000006		 0.00000002	
Mg		1.50577159		1.32682734		2.15417405		 0.00080685		 0.00003266		 0.00014419	
Mg		4.45869182		10.50918961		6.40285357		-0.00080687		-0.00003258		-0.00014429	
Mg		4.45869182		4.59118114		2.15417405		-0.00080685		-0.00003265		 0.00014418	
Mg		1.50577159		7.24483581		6.40285357		 0.00080687		 0.00003259		-0.00014430	
Mg		1.50577159		10.50918961		6.40285357		 0.00080686		-0.00003260		-0.00014428	
Mg		4.45869182		1.32682734		2.15417405		-0.00080683		 0.00003265		 0.00014417	
Mg		4.45869182		7.24483581		6.40285357		-0.00080687		 0.00003259		-0.00014428	
Mg		1.50577159		4.59118114		2.15417405		 0.00080683		-0.00003265		 0.00014417	
Mg		0.00000000		2.95900452		8.06497746		-0.00000000		 0.00000001		 0.00005483	
Mg		0.00000000		8.87701299		0.49204959		-0.00000000		-0.00000001		-0.00005469	
Si		2.98223170		7.38171373		0.90502168		0.00000000		 0.00016627		 0.00076380	
Si		2.98223170		4.45430321		7.65200537		-0.00000000		-0.00016625		-0.00076368	
Si		2.98223170		10.37231168		0.90502168		0.00000000		-0.00016636		 0.00076384	
Si		2.98223170		1.46370526		7.65200537		0.00000000		 0.00016634		-0.00076370	
Si		0.00000000		1.40690778		5.16203045		 0.00000003		 0.00015466		 0.00035886	
Si		0.00000000		10.42910916		3.39499717		 0.00000003		-0.00015479		-0.00035873	
Si		0.00000000		4.51110069		5.16203045		 0.00000003		-0.00015466		 0.00035886	
Si		0.00000000		7.32491625		3.39499717		 0.00000002		 0.00015479		-0.00035871	
