# total energy = -49440.1083129 eV	

CRYSTAL	
PRIMVEC	
		4.58045995		0.00000000		0.00000000	
		0.00000000		13.96799809		0.00000000	
		0.00000000		0.00000000		8.69560013	
PRIMCOORD
   70 1	
Si		2.29022997		0.00000000		0.00000000		0.00000000		0.00000000		0.00000000	
Si		0.00000000		6.98399996		4.34780006		0.00000000		0.00000000		0.00000000	
Si		2.22614888		5.25923189		0.00000000		 0.00079427		 0.00002061		-0.00000000	
Si		2.35431107		8.70876803		0.00000000		-0.00079427		-0.00002061		-0.00000000	
Si		0.06408109		12.24323185		4.34780006		-0.00079427		 0.00002061		0.00000000	
Si		4.51637885		1.72476899		4.34780006		 0.00079427		-0.00002061		0.00000000	
Mg		0.77597618		2.42358777		0.00000000		 0.00032003		-0.00031618		0.00000000	
Mg		3.80448377		11.54441169		0.00000000		-0.00032003		 0.00031618		0.00000000	
Mg		1.51425380		9.40758774		4.34780006		-0.00032003		-0.00031618		-0.00000000	
Mg		3.06620615		4.56041173		4.34780006		 0.00032003		 0.00031618		-0.00000000	
Mg		0.72513307		4.51809011		2.81563484		 0.00015343		-0.00050408		 0.00048267	
Mg		3.85532687		9.44991073		5.87996483		-0.00015343		 0.00050408		-0.00048267	
Mg		3.85532687		9.44991073		2.81563484		-0.00015343		 0.00050408		 0.00048267	
Mg		0.72513307		4.51809011		5.87996483		 0.00015343		-0.00050408		-0.00048267	
Mg		1.56509690		11.50208870		1.53216477		-0.00015343		-0.00050408		-0.00048267	
Mg		3.01536213		2.46591077		7.16343490		 0.00015343		 0.00050408		 0.00048267	
Mg		3.01536213		2.46591077		1.53216477		 0.00015343		 0.00050408		-0.00048267	
Mg		1.56509690		11.50208870		7.16343490		-0.00015343		-0.00050408		 0.00048267	
Mg		2.29022997		6.98399996		2.79363489		0.00000000		0.00000000		-0.00064383	
Mg		2.29022997		6.98399996		5.90196386		0.00000000		0.00000000		 0.00064383	
Mg		0.00000000		0.00000000		1.55416517		0.00000000		0.00000000		 0.00064383	
Mg		0.00000000		0.00000000		7.14143495		0.00000000		0.00000000		-0.00064383	
Mg		2.29022997		0.00000000		2.97293882		0.00000000		0.00000000		-0.00050802	
Mg		2.29022997		0.00000000		5.72266084		0.00000000		0.00000000		 0.00050802	
Mg		0.00000000		6.98399996		1.37486078		0.00000000		0.00000000		 0.00050802	
Mg		0.00000000		6.98399996		7.32073797		0.00000000		0.00000000		-0.00050802	
O		1.52167506		5.77129800		1.35755718		 0.00055373		-0.00046602		 0.00012186	
O		3.05878489		8.19670193		7.33804295		-0.00055373		 0.00046602		-0.00012186	
O		3.05878489		8.19670193		1.35755718		-0.00055373		 0.00046602		 0.00012186	
O		1.52167506		5.77129800		7.33804295		 0.00055373		-0.00046602		-0.00012186	
O		0.76855492		12.75529888		2.99024289		-0.00055373		-0.00046602		-0.00012186	
O		3.81190411		1.21270196		5.70535678		 0.00055373		 0.00046602		 0.00012186	
O		3.81190411		1.21270196		2.99024289		 0.00055373		 0.00046602		-0.00012186	
O		0.76855492		12.75529888		5.70535678		-0.00055373		-0.00046602		 0.00012186	
O		2.25857899		3.62092504		0.00000000		 0.00072738		-0.00056849		-0.00000000	
O		2.32188095		10.34707488		0.00000000		-0.00072738		 0.00056849		-0.00000000	
O		0.03165098		10.60492500		4.34780006		-0.00072738		-0.00056849		0.00000000	
O		4.54880897		3.36307584		4.34780006		 0.00072738		 0.00056849		0.00000000	
O		3.62502181		5.78973572		0.00000000		-0.00015457		 0.00056388		0.00000000	
O		0.95543814		8.17826374		0.00000000		 0.00015457		-0.00056388		0.00000000	
O		3.24566811		12.77373569		4.34780006		 0.00015457		 0.00056388		0.00000000	
O		1.33479183		1.19426378		4.34780006		-0.00015457		-0.00056388		0.00000000	
O		1.63247592		1.02064190		1.25773201		 0.00020492		 0.00015351		 0.00012687	
O		2.94798402		12.94735894		7.43786812		-0.00020492		-0.00015351		-0.00012687	
O		2.94798402		12.94735894		1.25773201		-0.00020492		-0.00015351		 0.00012687	
O		1.63247592		1.02064190		7.43786812		 0.00020492		 0.00015351		-0.00012687	
O		0.65775405		8.00464187		3.09006806		-0.00020492		 0.00015351		-0.00012687	
O		3.92270590		5.96335897		5.60553115		 0.00020492		-0.00015351		 0.00012687	
O		3.92270590		5.96335897		3.09006806		 0.00020492		-0.00015351		-0.00012687	
O		0.65775405		8.00464187		5.60553115		-0.00020492		 0.00015351		 0.00012687	
O		4.50053092		3.51784087		1.38433913		 0.00071083		-0.00069046		 0.00053586	
O		0.07992903		10.45015905		7.31126008		-0.00071083		 0.00069046		-0.00053586	
O		0.07992903		10.45015905		1.38433913		-0.00071083		 0.00069046		 0.00053586	
O		4.50053092		3.51784087		7.31126008		 0.00071083		-0.00069046		-0.00053586	
O		2.37015900		10.50184084		2.96346002		-0.00071083		-0.00069046		-0.00053586	
O		2.21030095		3.46615909		5.73213873		 0.00071083		 0.00069046		 0.00053586	
O		2.21030095		3.46615909		2.96346002		 0.00071083		 0.00069046		-0.00053586	
O		2.37015900		10.50184084		5.73213873		-0.00071083		-0.00069046		 0.00053586	
O		0.89630394		12.86159486		0.00000000		 0.00059723		-0.00008139		-0.00000000	
O		3.68415509		1.10640506		0.00000000		-0.00059723		 0.00008139		-0.00000000	
O		1.39392511		5.87759490		4.34780006		-0.00059723		-0.00008139		-0.00000000	
O		3.18653392		8.09040502		4.34780006		 0.00059723		 0.00008139		-0.00000000	
H		4.22822212		4.22671698		0.94347306		-0.00002939		 0.00061186		-0.00007977	
H		0.35223691		9.74128295		7.75212706		 0.00002939		-0.00061186		 0.00007977	
H		0.35223691		9.74128295		0.94347306		 0.00002939		-0.00061186		-0.00007977	
H		4.22822212		4.22671698		7.75212706		-0.00002939		 0.00061186		 0.00007977	
H		2.64246688		11.21071694		3.40432700		 0.00002939		 0.00061186		 0.00007977	
H		1.93799306		2.75728298		5.29127175		-0.00002939		-0.00061186		-0.00007977	
H		1.93799306		2.75728298		3.40432700		-0.00002939		-0.00061186		 0.00007977	
H		2.64246688		11.21071694		5.29127175		 0.00002939		 0.00061186		-0.00007977	
