# total energy = -49445.8462641 eV	

CRYSTAL	
PRIMVEC	
		4.83493015		0.00000000		0.00000000	
		0.00000000		13.96800199		0.00000000	
		0.00000000		0.00000000		8.69560253	
PRIMCOORD
   70 1	
Si		2.41746507		0.00000000		0.00000000		0.00000000		0.00000000		0.00000000	
Si		0.00000000		6.98400003		4.34780030		0.00000000		0.00000000		0.00000000	
Si		2.34982392		5.25923201		0.00000000		-0.00022927		-0.00013333		0.00000000	
Si		2.48510623		8.70876805		0.00000000		 0.00022927		 0.00013333		0.00000000	
Si		0.06764116		12.24323253		4.34780030		 0.00022927		-0.00013333		-0.00000000	
Si		4.76728899		1.72476898		4.34780030		-0.00022927		 0.00013333		-0.00000000	
Mg		0.81908503		2.42358803		0.00000000		-0.00085130		-0.00014957		0.00000000	
Mg		4.01584415		11.54441251		0.00000000		 0.00085130		 0.00014957		0.00000000	
Mg		1.59837907		9.40758806		4.34780030		 0.00085130		-0.00014957		0.00000000	
Mg		3.23655011		4.56041200		4.34780030		-0.00085130		 0.00014957		0.00000000	
Mg		0.76541779		4.51808992		2.81563511		-0.00018985		-0.00049558		 0.00039316	
Mg		4.06951236		9.44991110		5.87996500		 0.00018985		 0.00049558		-0.00039316	
Mg		4.06951236		9.44991110		2.81563511		 0.00018985		 0.00049558		 0.00039316	
Mg		0.76541779		4.51808992		5.87996500		-0.00018985		-0.00049558		-0.00039316	
Mg		1.65204728		11.50208947		1.53216519		 0.00018985		-0.00049558		-0.00039316	
Mg		3.18288287		2.46591107		7.16343541		-0.00018985		 0.00049558		 0.00039316	
Mg		3.18288287		2.46591107		1.53216519		-0.00018985		 0.00049558		-0.00039316	
Mg		1.65204728		11.50208947		7.16343541		 0.00018985		-0.00049558		 0.00039316	
Mg		2.41746507		6.98400003		2.79363521		0.00000000		0.00000000		-0.00033168	
Mg		2.41746507		6.98400003		5.90196442		0.00000000		0.00000000		 0.00033168	
Mg		0.00000000		0.00000000		1.55416509		0.00000000		0.00000000		 0.00033168	
Mg		0.00000000		0.00000000		7.14143503		0.00000000		0.00000000		-0.00033168	
Mg		2.41746507		0.00000000		2.97293908		0.00000000		0.00000000		 0.00023267	
Mg		2.41746507		0.00000000		5.72266104		0.00000000		0.00000000		-0.00023267	
Mg		0.00000000		6.98400003		1.37486122		0.00000000		0.00000000		-0.00023267	
Mg		0.00000000		6.98400003		7.32073841		0.00000000		0.00000000		 0.00023267	
O		1.60621214		5.77129802		1.35755701		-0.00001706		 0.00027196		-0.00025842	
O		3.22871800		8.19670205		7.33804311		 0.00001706		-0.00027196		 0.00025842	
O		3.22871800		8.19670205		1.35755701		 0.00001706		-0.00027196		-0.00025842	
O		1.60621214		5.77129802		7.33804311		-0.00001706		 0.00027196		 0.00025842	
O		0.81125293		12.75529950		2.99024329		 0.00001706		 0.00027196		 0.00025842	
O		4.02367722		1.21270201		5.70535730		-0.00001706		-0.00027196		-0.00025842	
O		4.02367722		1.21270201		2.99024329		-0.00001706		-0.00027196		 0.00025842	
O		0.81125293		12.75529950		5.70535730		 0.00001706		 0.00027196		-0.00025842	
O		2.38405619		3.62092512		0.00000000		 0.00077848		-0.00034324		0.00000000	
O		2.45087396		10.34707542		0.00000000		-0.00077848		 0.00034324		0.00000000	
O		0.03340888		10.60492515		4.34780030		-0.00077848		-0.00034324		0.00000000	
O		4.80152126		3.36307588		4.34780030		 0.00077848		 0.00034324		0.00000000	
O		3.82641207		5.78973602		0.00000000		-0.00029259		 0.00068794		-0.00000000	
O		1.00851808		8.17826404		0.00000000		 0.00029259		-0.00068794		-0.00000000	
O		3.42598315		12.77373654		4.34780030		 0.00029259		 0.00068794		-0.00000000	
O		1.40894699		1.19426401		4.34780030		-0.00029259		-0.00068794		-0.00000000	
O		1.72316910		1.02064215		1.25773214		 0.00002698		-0.00016557		-0.00028127	
O		3.11176104		12.94735936		7.43786846		-0.00002698		 0.00016557		 0.00028127	
O		3.11176104		12.94735936		1.25773214		-0.00002698		 0.00016557		-0.00028127	
O		1.72316910		1.02064215		7.43786846		 0.00002698		-0.00016557		 0.00028127	
O		0.69429597		8.00464218		3.09006816		-0.00002698		-0.00016557		 0.00028127	
O		4.14063418		5.96335933		5.60553099		 0.00002698		 0.00016557		-0.00028127	
O		4.14063418		5.96335933		3.09006816		 0.00002698		 0.00016557		 0.00028127	
O		0.69429597		8.00464218		5.60553099		-0.00002698		-0.00016557		-0.00028127	
O		4.75056013		3.51784102		1.38433913		 0.00011677		-0.00002996		 0.00014725	
O		0.08437001		10.45015952		7.31126001		-0.00011677		 0.00002996		-0.00014725	
O		0.08437001		10.45015952		1.38433913		-0.00011677		 0.00002996		 0.00014725	
O		4.75056013		3.51784102		7.31126001		 0.00011677		-0.00002996		-0.00014725	
O		2.50183412		10.50184154		2.96346020		-0.00011677		-0.00002996		-0.00014725	
O		2.33309506		3.46615901		5.73213895		 0.00011677		 0.00002996		 0.00014725	
O		2.33309506		3.46615901		2.96346020		 0.00011677		 0.00002996		-0.00014725	
O		2.50183412		10.50184154		5.73213895		-0.00011677		-0.00002996		 0.00014725	
O		0.94609913		12.86159544		0.00000000		 0.00087471		 0.00018675		0.00000000	
O		3.88883102		1.10640511		0.00000000		-0.00087471		-0.00018675		0.00000000	
O		1.47136594		5.87759541		4.34780030		-0.00087471		 0.00018675		-0.00000000	
O		3.36356421		8.09040514		4.34780030		 0.00087471		-0.00018675		-0.00000000	
H		4.46312402		4.22671721		0.94347280		-0.00038436		 0.00052055		 0.00005013	
H		0.37180613		9.74128333		7.75212732		 0.00038436		-0.00052055		-0.00005013	
H		0.37180613		9.74128333		0.94347280		 0.00038436		-0.00052055		 0.00005013	
H		4.46312402		4.22671721		7.75212732		-0.00038436		 0.00052055		-0.00005013	
H		2.78927120		11.21071724		3.40432702		 0.00038436		 0.00052055		-0.00005013	
H		2.04565895		2.75728330		5.29127213		-0.00038436		-0.00052055		 0.00005013	
H		2.04565895		2.75728330		3.40432702		-0.00038436		-0.00052055		-0.00005013	
H		2.78927120		11.21071724		5.29127213		 0.00038436		 0.00052055		 0.00005013	
