# total energy = -12344.3969767 eV	

CRYSTAL	
PRIMVEC	
		2.46200010		0.00000000		0.00000000	
		0.00000000		8.05300044		0.00000000	
		0.00000000		0.00000000		6.41339947	
PRIMCOORD
   20 1	
O		0.00000000		0.58786900		1.60334999		0.00000000		-0.00007966		-0.00000046	
O		0.00000000		7.46513119		4.81005021		0.00000000		 0.00007966		 0.00000046	
O		1.23100005		4.61436922		1.60334999		0.00000000		-0.00007974		-0.00000011	
O		1.23100005		3.43863122		4.81005021		-0.00000000		 0.00007974		 0.00000011	
O		0.00000000		2.92323907		2.82830903		0.00000000		-0.00003968		 0.00062732	
O		0.00000000		5.12976112		3.58509118		0.00000000		 0.00003968		-0.00062732	
O		0.00000000		5.12976112		6.03500925		0.00000000		 0.00003987		 0.00062720	
O		0.00000000		2.92323907		0.37838997		0.00000000		-0.00003987		-0.00062720	
O		1.23100005		6.94974028		2.82830903		0.00000000		-0.00004026		 0.00062717	
O		1.23100005		1.10326114		3.58509118		0.00000000		 0.00004026		-0.00062717	
O		1.23100005		1.10326114		6.03500925		0.00000000		 0.00004028		 0.00062738	
O		1.23100005		6.94974028		0.37838997		0.00000000		-0.00004028		-0.00062738	
Si		0.00000000		0.00000000		0.00000000		0.00000000		0.00000000		0.00000000	
Si		0.00000000		0.00000000		3.20670023		0.00000000		0.00000000		0.00000000	
Si		1.23100005		4.02650022		0.00000000		0.00000000		0.00000000		0.00000000	
Si		1.23100005		4.02650022		3.20670023		0.00000000		0.00000000		0.00000000	
Mg		0.00000000		2.03740898		4.81005021		0.00000000		 0.00043046		-0.00000023	
Mg		0.00000000		6.01559121		1.60334999		0.00000000		-0.00043046		 0.00000023	
Mg		1.23100005		6.06391018		4.81005021		0.00000000		 0.00043101		 0.00000009	
Mg		1.23100005		1.98909099		1.60334999		0.00000000		-0.00043101		-0.00000009	
