# total energy = -12334.5247219 eV	

CRYSTAL	
PRIMVEC	
		2.46200010		0.00000000		0.00000000	
		0.00000000		8.05300044		0.00000000	
		0.00000000		0.00000000		5.80259940	
PRIMCOORD
   20 1	
O		0.00000000		0.58786900		1.45065010		0.00000000		 0.00023012		 0.00000685	
O		0.00000000		7.46513119		4.35195029		0.00000000		-0.00023012		-0.00000685	
O		1.23100005		4.61436922		1.45065010		0.00000000		 0.00023004		 0.00000513	
O		1.23100005		3.43863122		4.35195029		0.00000000		-0.00023004		-0.00000513	
O		0.00000000		2.92323907		2.55894701		0.00000000		 0.00002767		 0.00041614	
O		0.00000000		5.12976112		3.24365312		-0.00000000		-0.00002767		-0.00041614	
O		0.00000000		5.12976112		5.46024622		0.00000000		-0.00002616		 0.00041456	
O		0.00000000		2.92323907		0.34235293		0.00000000		 0.00002616		-0.00041456	
O		1.23100005		6.94974028		2.55894701		0.00000000		 0.00002808		 0.00041664	
O		1.23100005		1.10326114		3.24365312		-0.00000000		-0.00002808		-0.00041664	
O		1.23100005		1.10326114		5.46024622		0.00000000		-0.00002582		 0.00041397	
O		1.23100005		6.94974028		0.34235293		0.00000000		 0.00002582		-0.00041397	
Si		0.00000000		0.00000000		0.00000000		0.00000000		0.00000000		0.00000000	
Si		0.00000000		0.00000000		2.90130019		0.00000000		0.00000000		0.00000000	
Si		1.23100005		4.02650022		0.00000000		0.00000000		0.00000000		0.00000000	
Si		1.23100005		4.02650022		2.90130019		0.00000000		0.00000000		0.00000000	
Mg		0.00000000		2.03740898		4.35195029		0.00000000		-0.00070349		 0.00000086	
Mg		0.00000000		6.01559121		1.45065010		0.00000000		 0.00070349		-0.00000086	
Mg		1.23100005		6.06391018		4.35195029		0.00000000		-0.00070359		 0.00000111	
Mg		1.23100005		1.98909099		1.45065010		0.00000000		 0.00070359		-0.00000111	
