# total energy = -12345.5790102 eV	

CRYSTAL	
PRIMVEC	
		2.46200010		0.00000000		0.00000000	
		0.00000000		8.05300044		0.00000000	
		0.00000000		0.00000000		6.56610010	
PRIMCOORD
   20 1	
O		0.00000000		0.58786900		1.64152502		0.00000000		 0.00045487		-0.00000017	
O		0.00000000		7.46513119		4.92457507		0.00000000		-0.00045487		 0.00000017	
O		1.23100005		4.61436922		1.64152502		0.00000000		 0.00045476		-0.00000005	
O		1.23100005		3.43863122		4.92457507		0.00000000		-0.00045476		 0.00000005	
O		0.00000000		2.92323907		2.89565015		-0.00000000		-0.00014286		 0.00084713	
O		0.00000000		5.12976112		3.67045020		0.00000000		 0.00014286		-0.00084713	
O		0.00000000		5.12976112		6.17870020		0.00000000		 0.00014303		 0.00084723	
O		0.00000000		2.92323907		0.38739990		-0.00000000		-0.00014303		-0.00084723	
O		1.23100005		6.94974028		2.89565015		0.00000000		-0.00014276		 0.00084705	
O		1.23100005		1.10326114		3.67045020		-0.00000000		 0.00014276		-0.00084705	
O		1.23100005		1.10326114		6.17870020		0.00000000		 0.00014287		 0.00084732	
O		1.23100005		6.94974028		0.38739990		0.00000000		-0.00014287		-0.00084732	
Si		0.00000000		0.00000000		0.00000000		0.00000000		0.00000000		0.00000000	
Si		0.00000000		0.00000000		3.28305005		0.00000000		0.00000000		0.00000000	
Si		1.23100005		4.02650022		0.00000000		0.00000000		0.00000000		0.00000000	
Si		1.23100005		4.02650022		3.28305005		0.00000000		0.00000000		0.00000000	
Mg		0.00000000		2.03740898		4.92457507		0.00000000		 0.00017805		 0.00000010	
Mg		0.00000000		6.01559121		1.64152502		0.00000000		-0.00017805		-0.00000010	
Mg		1.23100005		6.06391018		4.92457507		0.00000000		 0.00017797		 0.00000002	
Mg		1.23100005		1.98909099		1.64152502		0.00000000		-0.00017797		-0.00000002	
