# total energy = -12342.7858107 eV	

CRYSTAL	
PRIMVEC	
		2.46200010		0.00000000		0.00000000	
		0.00000000		8.05300044		0.00000000	
		0.00000000		0.00000000		6.26070130	
PRIMCOORD
   20 1	
O		0.00000000		0.58786900		1.56517495		0.00000000		-0.00078766		 0.00001123	
O		0.00000000		7.46513119		4.69552511		0.00000000		 0.00078766		-0.00001123	
O		1.23100005		4.61436922		1.56517495		0.00000000		-0.00078794		 0.00001213	
O		1.23100005		3.43863122		4.69552511		0.00000000		 0.00078794		-0.00001213	
O		0.00000000		2.92323907		2.76096914		0.00000000		-0.00042738		 0.00070000	
O		0.00000000		5.12976112		3.49973117		0.00000000		 0.00042738		-0.00070000	
O		0.00000000		5.12976112		5.89131831		0.00000000		 0.00043670		 0.00068299	
O		0.00000000		2.92323907		0.36938101		0.00000000		-0.00043670		-0.00068299	
O		1.23100005		6.94974028		2.76096914		0.00000000		-0.00042701		 0.00069997	
O		1.23100005		1.10326114		3.49973117		0.00000000		 0.00042701		-0.00069997	
O		1.23100005		1.10326114		5.89131831		0.00000000		 0.00043672		 0.00068353	
O		1.23100005		6.94974028		0.36938101		0.00000000		-0.00043672		-0.00068353	
Si		0.00000000		0.00000000		0.00000000		0.00000000		0.00000000		0.00000000	
Si		0.00000000		0.00000000		3.13035016		0.00000000		0.00000000		0.00000000	
Si		1.23100005		4.02650022		0.00000000		0.00000000		0.00000000		0.00000000	
Si		1.23100005		4.02650022		3.13035016		0.00000000		0.00000000		0.00000000	
Mg		0.00000000		2.03740898		4.69552511		0.00000000		-0.00008765		-0.00008500	
Mg		0.00000000		6.01559121		1.56517495		0.00000000		 0.00008765		 0.00008500	
Mg		1.23100005		6.06391018		4.69552511		0.00000000		-0.00008774		-0.00008468	
Mg		1.23100005		1.98909099		1.56517495		0.00000000		 0.00008774		 0.00008468	
