# total energy = -10069.0425402 eV

CRYSTAL
PRIMVEC
		4.76921985		0.00000000		0.00000000
		0.00000000		4.76921985		0.00000000
		0.00000000		0.00000000		4.76921985
PRIMECORD
   12 1
Mg		0.00000000		0.00000000		0.00000000		-0.00000142		-0.00000208		-0.00000172
Mg		2.38461186		0.00000000		2.38460896		 0.00000178		-0.00000277		 0.00000171
Mg		0.00000000		2.38460751		2.38460703		-0.00000262		 0.00000148		 0.00000298
Mg		2.38461282		2.38460703		0.00000000		 0.00000039		 0.00000204		-0.00000273
O		0.42811293		2.81272044		4.34110837		 0.00001481		 0.00001626		-0.00001585
O		4.34110306		1.95649313		0.42811872		-0.00001301		-0.00001235		 0.00001241
O		1.95649362		1.95649168		1.95649217		-0.00001119		-0.00001095		-0.00001127
O		2.81272382		2.81272140		2.81272189		 0.00001159		 0.00001197		 0.00001190
O		4.34110595		0.42811583		2.81272527		-0.00001490		 0.00001360		 0.00001467
O		0.42811583		4.34110595		1.95649458		 0.00001297		-0.00001405		-0.00001242
O		2.81272527		4.34110595		0.42811486		 0.00001219		-0.00001259		 0.00001124
O		1.95649410		0.42811776		4.34110257		-0.00001060		 0.00000941		-0.00001090
