# total energy = -41274.5628379 eV	

CRYSTAL	
PRIMVEC	
		8.15535424		0.00000000		0.00000000	
		0.00000000		8.15535424		0.00000000	
		0.00000000		0.00000000		8.15535424	
PRIMCOORD
   56 1	
Si		1.01941887		1.01941887		1.01941887		 0.00000051		 0.00000001		-0.00000007	
Si		7.13593456		7.13593293		7.13593293		-0.00000042		-0.00000017		 0.00000022	
Si		5.09709518		1.01941806		5.09709518		 0.00000009		-0.00000009		 0.00000015	
Si		3.05825825		7.13593374		3.05825662		-0.00000010		-0.00000001		-0.00000027	
Si		1.01941887		5.09709518		5.09709518		 0.00000044		 0.00000015		 0.00000026	
Si		7.13593374		3.05825662		3.05825662		-0.00000030		-0.00000009		-0.00000030	
Si		5.09709518		5.09709518		1.01941806		-0.00000009		 0.00000018		-0.00000017	
Si		3.05825743		3.05825662		7.13593374		-0.00000006		 0.00000006		 0.00000026	
Mg		4.07767468		4.07767550		4.07767712		 0.00000062		 0.00000018		-0.00000036	
Mg		2.03883694		6.11651568		0.00000000		 0.00000038		-0.00000043		 0.00000012	
Mg		6.11651568		2.03883694		0.00000000		-0.00000028		 0.00000023		 0.00000040	
Mg		6.11651568		0.00000000		2.03883856		-0.00000062		 0.00000020		-0.00000046	
Mg		2.03883775		0.00000000		6.11651325		 0.00000049		-0.00000042		 0.00000082	
Mg		0.00000000		2.03883694		6.11651325		-0.00000069		 0.00000049		 0.00000087	
Mg		0.00000000		6.11651568		2.03883937		-0.00000037		-0.00000050		-0.00000077	
Mg		4.07767550		0.00000000		0.00000000		 0.00000036		-0.00000013		 0.00000033	
Mg		2.03883775		2.03883775		4.07767712		 0.00000041		 0.00000023		-0.00000049	
Mg		6.11651568		6.11651406		4.07767550		-0.00000036		-0.00000012		0.00000000	
Mg		6.11651487		4.07767468		6.11651243		-0.00000014		 0.00000024		 0.00000057	
Mg		2.03883694		4.07767631		2.03884018		 0.00000032		 0.00000003		-0.00000102	
Mg		0.00000000		4.07767631		0.00000000		-0.00000016		 0.00000007		 0.00000016	
Mg		4.07767550		2.03883694		2.03883937		 0.00000060		 0.00000019		-0.00000078	
Mg		4.07767550		6.11651487		6.11651243		 0.00000046		-0.00000017		 0.00000072	
Mg		0.00000000		0.00000000		4.07767631		-0.00000077		-0.00000019		-0.00000016	
O		1.98977265		1.98977184		1.98977265		 0.00004599		 0.00004614		 0.00004646	
O		6.16558078		6.16557916		6.16557997		-0.00004616		-0.00004613		-0.00004637	
O		4.12674222		0.04906510		6.06744896		-0.00004622		-0.00004605		 0.00004597	
O		4.02861121		8.10628671		2.08790285		 0.00004625		 0.00004617		-0.00004620	
O		0.04906591		6.06744815		4.12674222		-0.00004623		 0.00004646		-0.00004637	
O		8.10628752		2.08790366		4.02861040		 0.00004620		-0.00004621		 0.00004621	
O		6.06744896		4.12674222		0.04906510		 0.00004608		-0.00004606		-0.00004604	
O		2.08790447		4.02860959		8.10628671		-0.00004627		 0.00004617		 0.00004619	
O		8.10628752		4.02861040		2.08790366		 0.00004613		 0.00004621		-0.00004600	
O		0.04906591		4.12674141		6.06744815		-0.00004628		-0.00004651		 0.00004621	
O		4.02861121		2.08790285		8.10628671		 0.00004611		-0.00004622		 0.00004613	
O		4.12674141		6.06744896		0.04906510		-0.00004590		 0.00004598		-0.00004607	
O		2.08790447		8.10628671		4.02860959		-0.00004635		 0.00004624		 0.00004632	
O		6.06744896		0.04906510		4.12674222		 0.00004650		-0.00004633		-0.00004626	
O		1.98977184		6.06744815		6.06744815		 0.00004609		 0.00004633		 0.00004596	
O		6.16558078		2.08790366		2.08790366		-0.00004603		-0.00004613		-0.00004607	
O		4.12674222		4.12674141		1.98977265		-0.00004602		-0.00004593		 0.00004619	
O		4.02861121		4.02861040		6.16557997		 0.00004603		 0.00004606		-0.00004628	
O		0.04906591		1.98977265		0.04906591		-0.00004634		 0.00004623		-0.00004645	
O		8.10628752		6.16557916		8.10628590		 0.00004608		-0.00004606		 0.00004631	
O		8.10628752		8.10628671		6.16557916		 0.00004617		 0.00004614		-0.00004632	
O		0.04906591		0.04906510		1.98977265		-0.00004605		-0.00004611		 0.00004631	
O		4.02861121		6.16557997		4.02860959		 0.00004625		-0.00004637		 0.00004637	
O		4.12674222		1.98977184		4.12674222		-0.00004627		 0.00004621		-0.00004603	
O		6.06744896		1.98977184		6.06744815		 0.00004631		 0.00004617		 0.00004611	
O		2.08790447		6.16557997		2.08790366		-0.00004630		-0.00004613		-0.00004601	
O		1.98977184		4.12674141		4.12674222		 0.00004613		-0.00004629		-0.00004619	
O		6.16558078		4.02861040		4.02861040		-0.00004620		 0.00004619		 0.00004623	
O		6.16558078		8.10628590		8.10628590		-0.00004601		 0.00004618		 0.00004612	
O		1.98977265		0.04906591		0.04906591		 0.00004604		-0.00004606		-0.00004634	
O		6.06744896		6.06744896		1.98977184		 0.00004617		 0.00004595		 0.00004615	
O		2.08790447		2.08790285		6.16557997		-0.00004617		-0.00004614		-0.00004627	
