# total energy = -41274.1600899 eV	

CRYSTAL	
PRIMVEC	
		8.01109433		0.00000000		0.00000000	
		0.00000000		8.01109433		0.00000000	
		0.00000000		0.00000000		8.01109433	
PRIMCOORD
   56 1	
Si		1.00138598		1.00138679		1.00138679		 0.00000077		 0.00000019		-0.00000004	
Si		7.00970591		7.00970510		7.00970510		-0.00000041		-0.00000014		 0.00000017	
Si		5.00693233		1.00138598		5.00693233		 0.00000018		 0.00000011		 0.00000026	
Si		3.00415956		7.00970591		3.00415875		-0.00000045		-0.00000019		-0.00000036	
Si		1.00138517		5.00693233		5.00693233		 0.00000068		 0.00000006		 0.00000026	
Si		7.00970591		3.00415875		3.00415956		-0.00000040		 0.00000003		-0.00000043	
Si		5.00693233		5.00693233		1.00138598		 0.00000012		 0.00000001		 0.00000011	
Si		3.00416037		3.00415875		7.00970591		-0.00000049		 0.00000001		 0.00000020	
Mg		4.00554473		4.00554554		4.00554635		 0.00000055		 0.00000011		-0.00000026	
Mg		2.00277196		6.00831993		0.00000000		 0.00000022		-0.00000039		 0.00000006	
Mg		6.00831912		2.00277196		0.00000000		-0.00000008		 0.00000036		 0.00000004	
Mg		6.00831993		0.00000000		2.00277358		-0.00000031		-0.00000004		-0.00000029	
Mg		2.00277277		0.00000000		6.00831831		 0.00000025		-0.00000000		 0.00000039	
Mg		0.00000000		2.00277277		6.00831831		-0.00000046		 0.00000029		 0.00000063	
Mg		0.00000000		6.00831993		2.00277358		-0.00000049		-0.00000051		-0.00000051	
Mg		4.00554554		0.00000000		0.00000000		 0.00000032		-0.00000003		 0.00000001	
Mg		2.00277277		2.00277277		4.00554635		 0.00000015		-0.00000002		-0.00000010	
Mg		6.00831912		6.00831912		4.00554554		-0.00000018		-0.00000014		 0.00000002	
Mg		6.00831912		4.00554473		6.00831831		-0.00000004		 0.00000012		 0.00000053	
Mg		2.00277277		4.00554635		2.00277439		 0.00000020		-0.00000007		-0.00000073	
Mg		0.00000000		4.00554635		0.00000000		-0.00000032		-0.00000000		 0.00000009	
Mg		4.00554554		2.00277196		2.00277439		 0.00000038		 0.00000032		-0.00000055	
Mg		4.00554473		6.00831912		6.00831750		 0.00000051		-0.00000011		 0.00000046	
Mg		0.00000000		0.00000000		4.00554635		-0.00000046		-0.00000006		 0.00000013	
O		1.96087519		1.96087519		1.96087601		 0.00000913		 0.00000909		 0.00000907	
O		6.05021670		6.05021588		6.05021588		-0.00000939		-0.00000926		-0.00000937	
O		4.04744311		0.04189676		5.96642155		-0.00000915		-0.00000933		 0.00000929	
O		3.96364878		7.96919432		2.04467034		 0.00000925		 0.00000929		-0.00000948	
O		0.04189676		5.96642155		4.04744393		-0.00000931		 0.00000945		-0.00000964	
O		7.96919513		2.04467034		3.96364796		 0.00000938		-0.00000943		 0.00000917	
O		5.96642155		4.04744393		0.04189757		 0.00000902		-0.00000929		-0.00000922	
O		2.04467034		3.96364796		7.96919432		-0.00000897		 0.00000930		 0.00000943	
O		7.96919513		3.96364796		2.04467034		 0.00000901		 0.00000921		-0.00000901	
O		0.04189676		4.04744311		5.96642073		-0.00000930		-0.00000944		 0.00000944	
O		3.96364878		2.04466953		7.96919432		 0.00000924		-0.00000933		 0.00000943	
O		4.04744311		5.96642155		0.04189676		-0.00000928		 0.00000909		-0.00000921	
O		2.04467034		7.96919432		3.96364715		-0.00000934		 0.00000942		 0.00000942	
O		5.96642155		0.04189757		4.04744474		 0.00000933		-0.00000955		-0.00000960	
O		1.96087438		5.96642155		5.96642073		 0.00000921		 0.00000918		 0.00000907	
O		6.05021670		2.04467034		2.04467034		-0.00000908		-0.00000916		-0.00000915	
O		4.04744311		4.04744311		1.96087601		-0.00000914		-0.00000898		 0.00000887	
O		3.96364796		3.96364796		6.05021588		 0.00000940		 0.00000949		-0.00000904	
O		0.04189757		1.96087519		0.04189757		-0.00000956		 0.00000933		-0.00000943	
O		7.96919513		6.05021588		7.96919350		 0.00000903		-0.00000903		 0.00000949	
O		7.96919432		7.96919350		6.05021588		 0.00000924		 0.00000927		-0.00000929	
O		0.04189757		0.04189757		1.96087601		-0.00000934		-0.00000935		 0.00000906	
O		3.96364796		6.05021670		3.96364715		 0.00000946		-0.00000963		 0.00000956	
O		4.04744311		1.96087438		4.04744393		-0.00000906		 0.00000917		-0.00000934	
O		5.96642155		1.96087438		5.96642073		 0.00000911		 0.00000918		 0.00000939	
O		2.04467034		6.05021670		2.04467034		-0.00000894		-0.00000899		-0.00000909	
O		1.96087438		4.04744311		4.04744393		 0.00000908		-0.00000890		-0.00000931	
O		6.05021670		3.96364796		3.96364796		-0.00000948		 0.00000938		 0.00000913	
O		6.05021670		7.96919350		7.96919350		-0.00000921		 0.00000925		 0.00000946	
O		1.96087438		0.04189757		0.04189757		 0.00000934		-0.00000925		-0.00000918	
O		5.96642155		5.96642073		1.96087519		 0.00000935		 0.00000934		 0.00000925	
O		2.04467116		2.04467034		6.05021670		-0.00000931		-0.00000948		-0.00000926	
