# total energy = -41273.4429855 eV	

CRYSTAL	
PRIMVEC	
		8.29336988		0.00000000		0.00000000	
		0.00000000		8.29336988		0.00000000	
		0.00000000		0.00000000		8.29336988	
PRIMCOORD
   56 1	
Si		1.03667063		1.03667144		1.03667144		-0.00000018		 0.00000005		 0.00000001	
Si		7.25669763		7.25669763		7.25669763		 0.00000004		 0.00000016		-0.00000006	
Si		5.18335556		1.03667063		5.18335556		 0.00000004		 0.00000007		 0.00000012	
Si		3.11001350		7.25669763		3.11001269		-0.00000009		 0.00000016		 0.00000023	
Si		1.03667063		5.18335556		5.18335556		-0.00000001		-0.00000009		 0.00000005	
Si		7.25669763		3.11001350		3.11001269		 0.00000021		-0.00000024		 0.00000009	
Si		5.18335556		5.18335475		1.03667063		 0.00000006		-0.00000001		-0.00000018	
Si		3.11001350		3.11001269		7.25669844		 0.00000001		-0.00000009		-0.00000028	
Mg		4.14668331		4.14668413		4.14668494		 0.00000029		 0.00000009		-0.00000006	
Mg		2.07334206		6.22002700		0.00000000		 0.00000026		-0.00000017		-0.00000001	
Mg		6.22002700		2.07334125		0.00000000		-0.00000008		 0.00000019		 0.00000012	
Mg		6.22002700		0.00000000		2.07334288		-0.00000016		 0.00000016		-0.00000033	
Mg		2.07334206		0.00000000		6.22002619		 0.00000017		 0.00000007		 0.00000019	
Mg		0.00000000		2.07334206		6.22002538		-0.00000035		 0.00000014		 0.00000033	
Mg		0.00000000		6.22002700		2.07334288		-0.00000040		-0.00000016		-0.00000032	
Mg		4.14668413		0.00000000		0.00000000		 0.00000036		-0.00000008		 0.00000008	
Mg		2.07334206		2.07334206		4.14668494		-0.00000001		-0.00000009		-0.00000006	
Mg		6.22002700		6.22002619		4.14668413		-0.00000012		-0.00000001		-0.00000004	
Mg		6.22002700		4.14668331		6.22002538		-0.00000010		-0.00000004		 0.00000054	
Mg		2.07334206		4.14668494		2.07334369		 0.00000009		-0.00000012		-0.00000042	
Mg		0.00000000		4.14668413		0.00000000		-0.00000040		-0.00000009		 0.00000006	
Mg		4.14668331		2.07334125		2.07334369		 0.00000042		 0.00000009		-0.00000043	
Mg		4.14668331		6.22002619		6.22002538		 0.00000033		-0.00000014		 0.00000043	
Mg		0.00000000		0.00000000		4.14668413		-0.00000026		 0.00000008		-0.00000007	
O		2.01681306		2.01681306		2.01681387		 0.00000990		 0.00000986		 0.00000987	
O		6.27655519		6.27655519		6.27655519		-0.00000988		-0.00000981		-0.00000994	
O		4.20321313		0.05652819		6.16349800		-0.00000979		-0.00000992		 0.00000980	
O		4.09015594		8.23684006		2.12987107		 0.00000987		 0.00000980		-0.00000990	
O		0.05652900		6.16349800		4.20321313		-0.00000986		 0.00000991		-0.00000993	
O		8.23684088		2.12987107		4.09015594		 0.00000973		-0.00000974		 0.00000976	
O		6.16349800		4.20321313		0.05652819		 0.00000976		-0.00000968		-0.00000972	
O		2.12987107		4.09015512		8.23684006		-0.00000987		 0.00000989		 0.00000991	
O		8.23684006		4.09015594		2.12987107		 0.00000984		 0.00000989		-0.00000980	
O		0.05652900		4.20321313		6.16349719		-0.00000979		-0.00000979		 0.00000984	
O		4.09015594		2.12987025		8.23684006		 0.00000979		-0.00000981		 0.00000990	
O		4.20321313		6.16349800		0.05652900		-0.00000978		 0.00000982		-0.00000985	
O		2.12987107		8.23684006		4.09015512		-0.00000987		 0.00000976		 0.00000981	
O		6.16349800		0.05652819		4.20321313		 0.00000991		-0.00000997		-0.00000988	
O		2.01681306		6.16349800		6.16349719		 0.00000989		 0.00000985		 0.00000985	
O		6.27655600		2.12987025		2.12987107		-0.00000991		-0.00000978		-0.00000983	
O		4.20321313		4.20321232		2.01681387		-0.00000979		-0.00000965		 0.00000983	
O		4.09015594		4.09015512		6.27655519		 0.00000978		 0.00000992		-0.00000985	
O		0.05652900		2.01681306		0.05652900		-0.00000984		 0.00000985		-0.00000978	
O		8.23684088		6.27655519		8.23684006		 0.00000977		-0.00000988		 0.00000991	
O		8.23684088		8.23684006		6.27655519		 0.00000967		 0.00000963		-0.00000983	
O		0.05652900		0.05652819		2.01681387		-0.00000983		-0.00000983		 0.00000986	
O		4.09015594		6.27655519		4.09015512		 0.00000986		-0.00000999		 0.00000995	
O		4.20321313		2.01681306		4.20321313		-0.00000976		 0.00000985		-0.00000987	
O		6.16349800		2.01681306		6.16349800		 0.00000982		 0.00000978		 0.00000981	
O		2.12987107		6.27655519		2.12987107		-0.00000988		-0.00000985		-0.00000987	
O		2.01681306		4.20321313		4.20321313		 0.00000991		-0.00000978		-0.00000989	
O		6.27655519		4.09015512		4.09015594		-0.00000987		 0.00000985		 0.00000977	
O		6.27655600		8.23684006		8.23684006		-0.00000988		 0.00000976		 0.00000984	
O		2.01681306		0.05652900		0.05652900		 0.00000993		-0.00000985		-0.00000984	
O		6.16349800		6.16349800		2.01681306		 0.00000982		 0.00000968		 0.00000986	
O		2.12987107		2.12987025		6.27655519		-0.00000979		-0.00000971		-0.00000977	
