# total energy = -7658.56145416 eV	

CRYSTAL	
PRIMVEC	
		5.53914319		0.00000000		-0.00000554	
		-2.76957437		4.79704398		-0.00000554	
		-0.00000554		-0.00001108		4.77032672	
PRIMCOORD
   15 1	
Mg		0.00000000		0.00000000		0.00000000		-0.00000050		 0.00000266		-0.00000021	
Mg		0.00000000		3.19803061		-0.05315581		-0.00000313		-0.00000701		-0.00000273	
Mg		2.76956661		1.59900118		4.82346869		 0.00000187		 0.00000439		 0.00000238	
O		0.90775451		1.60778762		1.04477436		 0.00004889		 0.00000517		-0.00051515	
O		1.86180711		3.18924639		3.72558782		-0.00003002		-0.00001687		 0.00033693	
O		0.92330670		4.77929712		1.04467131		-0.00002670		-0.00000306		-0.00016541	
O		1.84626102		0.01773467		3.72563215		 0.00002593		-0.00000078		 0.00020182	
O		-1.83106398		3.20700544		1.04477824		-0.00002359		-0.00004726		-0.00053562	
O		4.60062616		1.59002192		3.72549086		 0.00004121		 0.00005765		 0.00069154	
H		0.80218977		1.66617386		2.00287168		 0.00027471		-0.00003231		-0.00012993	
H		1.96738294		3.13085461		2.76739521		-0.00029447		 0.00004139		 0.00029783	
H		0.92552187		4.65865447		2.00295589		-0.00010856		 0.00030042		-0.00045982	
H		1.84404529		0.13837455		2.76736695		 0.00010832		-0.00029424		 0.00042453	
H		-1.72771884		3.26922916		2.00286447		-0.00016449		-0.00022445		-0.00011136	
H		4.49729044		1.52780318		2.76748885		 0.00015054		 0.00021432		-0.00003482	
