# total energy = -7658.23113039 eV	

CRYSTAL	
PRIMVEC	
		5.28608280		0.00000000		0.00000000	
		-2.64304140		4.57788159		0.00000000	
		0.00000000		0.00000000		4.33241195	
PRIMCOORD
   15 1	
Mg		0.00000000		0.00000000		0.00000000		-0.00000140		-0.00000180		-0.00000010	
Mg		0.00000000		3.05192124		-0.07147392		 0.00000183		 0.00000390		-0.00026482	
Mg		2.64304195		1.52596311		4.40388587		-0.00000135		-0.00000243		 0.00026465	
O		0.86028179		1.53772658		1.04781732		 0.00012560		 0.00005357		 0.00005634	
O		1.78275628		3.04016055		3.28459186		-0.00012763		-0.00005321		-0.00004605	
O		0.88119350		4.55405048		1.04783726		-0.00011026		 0.00010163		-0.00001252	
O		1.76184790		0.02383498		3.28457413		 0.00010938		-0.00010102		 0.00001078	
O		-1.74147640		3.06399498		1.04780457		-0.00000554		-0.00012887		 0.00010035	
O		4.38451448		1.51388827		3.28460959		 0.00000489		 0.00012874		-0.00010789	
H		0.60712332		1.66854084		1.97249811		-0.00013960		-0.00047742		 0.00000377	
H		2.03592472		2.90934185		2.35991882		 0.00014205		 0.00047694		-0.00001340	
H		0.89448121		4.26938926		1.97247484		 0.00048417		 0.00009879		 0.00006755	
H		1.74855853		0.30849289		2.35993600		-0.00048330		-0.00009945		-0.00006558	
H		-1.50160398		3.21783197		1.97251030		-0.00035287		 0.00035559		-0.00003522	
H		4.14464926		1.36005571		2.35989777		 0.00035403		-0.00035498		 0.00004214	
