# total energy = -14250.0378858 eV

CRYSTAL
PRIMVEC
		7.53674965		0.00000000		0.00000000
		0.00000000		7.72999945		0.00000000
		0.00000000		0.00000000		5.01000157
PRIMECORD
   24 1
Ca		2.48712814		1.31410013		2.55509982		 0.00021566		 0.00007039		-0.00023879
Ca		5.04962151		6.41590007		2.55509982		-0.00021566		-0.00007039		-0.00023879
Ca		1.28124819		5.17909986		2.45490024		-0.00021566		 0.00007039		 0.00023879
Ca		6.25550146		2.55089959		2.45490024		 0.00021566		-0.00007039		 0.00023879
Si		1.05514495		2.78280010		4.75949961		 0.00005757		 0.00018336		 0.00091874
Si		6.48160470		4.94720010		4.75949961		-0.00005757		-0.00018336		 0.00091874
Si		2.71322987		6.64779983		0.25049970		-0.00005757		 0.00018336		-0.00091874
Si		4.82351978		1.08219962		0.25049970		 0.00005757		-0.00018336		-0.00091874
Mg		0.00000000		0.00000000		0.00000000		0.00000000		0.00000000		 0.00012306
Mg		3.76837482		3.86499972		0.00000000		0.00000000		0.00000000		-0.00012306
O		3.76837482		0.00000000		0.95189977		0.00000000		0.00000000		 0.00077644
O		0.00000000		3.86499972		4.05809954		0.00000000		0.00000000		-0.00077644
O		1.05514495		2.78280010		1.30259981		 0.00000871		 0.00004807		 0.00010996
O		6.48160470		4.94720010		1.30259981		-0.00000871		-0.00004807		 0.00010996
O		2.71322987		6.64779983		3.70739951		-0.00000871		 0.00004807		-0.00010996
O		4.82351978		1.08219962		3.70739951		 0.00000871		-0.00004807		-0.00010996
O		0.60293997		1.39140005		4.05809954		 0.00018832		 0.00007705		-0.00054210
O		6.93380968		6.33859940		4.05809954		-0.00018832		-0.00007705		-0.00054210
O		1.35661494		7.11159934		0.95189977		 0.00014905		-0.00003094		 0.00015946
O		6.18013471		0.61840011		0.95189977		-0.00014905		 0.00003094		 0.00015946
O		3.16543485		5.25639977		0.95189977		-0.00018832		 0.00007705		 0.00054210
O		4.37131480		2.47359967		0.95189977		 0.00018832		-0.00007705		 0.00054210
O		2.41175989		3.24659962		4.05809954		-0.00014905		-0.00003094		-0.00015946
O		5.12498976		4.48339983		4.05809954		 0.00014905		 0.00003094		-0.00015946
