# total energy = -9139.58909533 eV

CRYSTAL
PRIMVEC
		5.33300075		0.00000000		-0.63995880
		-2.66649769		4.61851571		0.31998209
		-0.87887783		0.00000000		7.32399801
PRIMECORD
   14 1
Mg		1.37351987		0.00000000		3.12682919		 0.00051794		-0.00000000		-0.00019581
Mg		-1.28791380		1.53658005		3.44620110		-0.00005225		 0.00024561		 0.00001777
Mg		1.37858604		3.08193405		3.12622117		-0.00005225		-0.00024561		 0.00001777
Si		-0.06767412		3.07900886		0.56394795		-0.00040527		-0.00023543		 0.00013765
Si		2.59882572		1.53950470		0.24396801		-0.00040527		 0.00023543		 0.00013765
O		-0.25645673		3.07900886		2.13714280		 0.00025565		-0.00024076		-0.00006284
O		2.41004311		1.53950470		1.81716287		 0.00025565		 0.00024076		-0.00006284
O		1.79910523		0.00000000		6.95211182		 0.00064332		-0.00000000		-0.00016478
O		-2.20864395		2.31387499		7.43304157		-0.00010802		-0.00023798		-0.00001892
O		0.45785589		2.30463804		7.11306164		-0.00010802		 0.00023798		-0.00001892
O		3.01014877		0.00000000		3.91215417		 0.00068504		-0.00000000		 0.00018853
O		-2.28552011		3.05745615		4.54763495		-0.00063353		-0.00026538		 0.00012520
O		0.38097973		1.56105796		4.22765501		-0.00063353		 0.00026538		 0.00012520
O		-0.26630117		0.00000000		2.21917215		 0.00004053		-0.00000000		-0.00022565
