# total energy = -9138.97563332 eV

CRYSTAL
PRIMVEC
		5.33300075		0.00000000		0.63995880
		-2.66649769		4.61851571		-0.31998209
		0.87887783		0.00000000		7.32399801
PRIMECORD
   14 1
Mg		2.17505907		0.00000000		3.55265895		 0.00022963		-0.00000000		-0.00056568
Mg		-0.48637513		1.53658005		3.23328703		 0.00031890		-0.00000028		 0.00006025
Mg		2.18012470		3.08193405		3.55326697		 0.00031890		 0.00000028		 0.00006025
Si		0.06767412		3.07900886		0.56394795		-0.00036521		 0.00000687		 0.00032437
Si		2.73417396		1.53950470		0.88392789		-0.00036521		-0.00000687		 0.00032437
O		0.25645673		3.07900886		2.13714280		 0.00050441		-0.00048908		 0.00084745
O		2.92295710		1.53950470		2.45712274		 0.00050441		 0.00048908		 0.00084745
O		3.54456070		0.00000000		7.59335167		 0.00025832		-0.00000000		-0.00051231
O		-0.46318902		2.31387499		7.11242192		-0.00009109		 0.00023331		-0.00052272
O		2.20331082		2.30463804		7.43240186		-0.00009109		-0.00023331		-0.00052272
O		4.05074289		0.00000000		4.75946188		-0.00065045		0.00000000		-0.00070798
O		-1.24492599		3.05745615		4.12398110		-0.00065329		 0.00090101		-0.00005036
O		1.42157385		1.56105796		4.44396104		-0.00065329		-0.00090101		-0.00005036
O		0.26630117		0.00000000		2.21917215		 0.00073508		-0.00000000		 0.00046799
