# total energy = -9140.03511207 eV

CRYSTAL
PRIMVEC
		5.33300036		0.00000000		-0.21331980
		-2.66649751		4.61851673		0.10665990
		-0.29296247		0.00000000		7.32399762
PRIMECORD
   14 1
Mg		1.64069923		0.00000000		3.26877209		-0.00073648		0.00000000		-0.00010312
Mg		-1.02073429		1.53657987		3.37523024		 0.00032240		 0.00035222		 0.00023779
Mg		1.64576589		3.08193419		3.26857034		 0.00032240		-0.00035222		 0.00023779
Si		-0.02255795		3.07900884		0.56394821		-0.00031124		 0.00025604		 0.00042059
Si		2.64394223		1.53950522		0.45728778		-0.00031124		-0.00025604		 0.00042059
O		-0.08548590		3.07900884		2.13714332		-0.00000318		 0.00060987		-0.00041243
O		2.58101428		1.53950522		2.03048288		-0.00000318		-0.00060987		-0.00041243
O		2.38092395		0.00000000		7.16585820		 0.00040222		0.00000000		 0.00036094
O		-1.62682608		2.31387510		7.32616829		 0.00014003		-0.00032814		-0.00009958
O		1.03967410		2.30463789		7.21950839		 0.00014003		 0.00032814		-0.00009958
O		3.35701416		0.00000000		4.19459006		 0.00011443		0.00000000		-0.00003875
O		-1.93865524		3.05745590		4.40641703		-0.00042427		-0.00086732		 0.00009630
O		0.72784494		1.56105816		4.29975713		-0.00042427		 0.00086732		 0.00009630
O		-0.08876725		0.00000000		2.21917227		 0.00077235		-0.00000000		-0.00070440
