# total energy = -9139.605457 eV

CRYSTAL
PRIMVEC
		5.33300163		0.00000000		-0.85328264
		-2.66649811		4.61851494		0.42663862
		-1.17183983		0.00000000		7.32400165
PRIMECORD
   14 1
Mg		1.23992972		0.00000000		3.05585804		-0.00070187		-0.00000000		 0.00006266
Mg		-1.42150403		1.53658007		3.48168653		-0.00036790		 0.00014323		 0.00014535
Mg		1.24499570		3.08193379		3.05504683		-0.00036790		-0.00014323		 0.00014535
Si		-0.09023222		3.07900870		0.56394772		 0.00009512		-0.00003638		 0.00018270
Si		2.57626806		1.53950516		0.13730802		 0.00009512		 0.00003638		 0.00018270
O		-0.34194279		3.07900870		2.13714272		-0.00011763		-0.00001336		-0.00026923
O		2.32455694		1.53950516		1.71050302		-0.00011763		 0.00001336		-0.00026923
O		1.50819600		0.00000000		6.84523745		 0.00058428		0.00000000		 0.00015592
O		-2.49955358		2.31387464		7.48647753		-0.00010609		 0.00050947		 0.00016192
O		0.16694724		2.30463760		7.05983730		-0.00010609		-0.00050947		 0.00016192
O		2.83671663		0.00000000		3.77093666		 0.00016622		0.00000000		-0.00007781
O		-2.45895175		3.05745560		4.61824381		 0.00029640		-0.00014126		-0.00038337
O		0.20754798		1.56105771		4.19160358		 0.00029640		 0.00014126		-0.00038337
O		-0.35506789		0.00000000		2.21917161		 0.00035156		0.00000000		 0.00018449
