# total energy = -10068.8142498 eV	

CRYSTAL	
PRIMVEC	
		4.58718208		0.00000000		0.00000000	
		0.00000000		4.82861006		0.00000000	
		0.00000000		0.00000000		4.82861006	
PRIMCOORD
   12 1	
Mg		0.00000000		0.00000000		0.00000000		0.00000000		0.00000000		0.00000000	
Mg		2.29359104		0.00000000		2.41430595		-0.00000000		0.00000000		0.00000000	
Mg		0.00000000		2.41430595		2.41430595		0.00000000		-0.00000000		-0.00000000	
Mg		2.29359104		2.41430595		0.00000000		0.00000000		0.00000000		-0.00000000	
O		0.41020601		2.84610199		4.39681586		-0.00005572		-0.00013035		 0.00007967	
O		4.17697608		1.98250991		0.43179604		 0.00005572		 0.00013035		-0.00007967	
O		1.88338504		1.98250991		1.98250991		 0.00005572		 0.00013035		 0.00007967	
O		2.70379705		2.84610199		2.84610199		-0.00005572		-0.00013035		-0.00007967	
O		4.17697608		0.43179604		2.84610199		 0.00005572		-0.00013035		-0.00007967	
O		0.41020601		4.39681586		1.98250991		-0.00005572		 0.00013035		 0.00007967	
O		2.70379705		4.39681586		0.43179604		-0.00005572		 0.00013035		-0.00007967	
O		1.88338504		0.43179604		4.39681586		 0.00005572		-0.00013035		 0.00007967	
