# total energy = -10069.0865745 eV	

CRYSTAL	
PRIMVEC	
		4.70789693		0.00000000		0.00000000	
		0.00000000		4.82861211		0.00000000	
		0.00000000		0.00000000		4.82861211	
PRIMCOORD
   12 1	
Mg		0.00000000		0.00000000		0.00000000		-0.00000000		0.00000000		0.00000000	
Mg		2.35394893		0.00000000		2.41430606		-0.00000000		0.00000000		0.00000000	
Mg		0.00000000		2.41430606		2.41430606		0.00000000		0.00000000		-0.00000000	
Mg		2.35394893		2.41430606		0.00000000		-0.00000000		0.00000000		0.00000000	
O		0.42100086		2.84610212		4.39681605		-0.00037329		-0.00018488		 0.00017951	
O		4.28689607		1.98250999		0.43179607		 0.00037329		 0.00018488		-0.00017951	
O		1.93294714		1.98250999		1.98250999		 0.00037329		 0.00018488		 0.00017951	
O		2.77494979		2.84610212		2.84610212		-0.00037329		-0.00018488		-0.00017951	
O		4.28689607		0.43179607		2.84610212		 0.00037329		-0.00018488		-0.00017951	
O		0.42100086		4.39681605		1.98250999		-0.00037329		 0.00018488		 0.00017951	
O		2.77494979		4.39681605		0.43179607		-0.00037329		 0.00018488		-0.00017951	
O		1.93294714		0.43179607		4.39681605		 0.00037329		-0.00018488		 0.00017951	
