# total energy = -18361.7143663 eV	

CRYSTAL	
PRIMVEC	
		5.17612509		0.00000000		0.00000000	
		0.00000000		11.07999783		0.00000000	
		0.00000000		0.00000000		6.36999834	
PRIMCOORD
   28 1	
Mg		0.00000000		0.00000000		0.00000000		0.00000000		-0.00000000		-0.00000000	
Mg		2.58806306		5.53999995		0.00000000		0.00000000		0.00000000		0.00000000	
Mg		0.00000000		0.00000000		3.18500020		0.00000000		0.00000000		-0.00000000	
Mg		2.58806306		5.53999995		3.18500020		-0.00000000		0.00000000		0.00000000	
Ca		5.08813096		2.84755981		1.59250010		 0.00034736		 0.00010952		0.00000000	
Ca		0.08799413		8.23244009		4.77750031		-0.00034736		-0.00010952		0.00000000	
Ca		2.50006790		2.69244014		4.77750031		 0.00034736		-0.00010952		-0.00000000	
Ca		2.67605719		8.38756028		1.59250010		-0.00034736		 0.00010952		-0.00000000	
Si		2.08597789		0.95288011		1.59250010		-0.00003218		-0.00008945		0.00000000	
Si		3.09014719		10.12712030		4.77750031		 0.00003218		 0.00008945		0.00000000	
Si		4.67404095		4.58711984		4.77750031		-0.00003218		 0.00008945		0.00000000	
Si		0.50208413		6.49288006		1.59250010		 0.00003218		-0.00008945		0.00000000	
O		3.95456008		0.74235986		1.59250010		 0.00006298		-0.00018255		0.00000000	
O		1.22156604		10.33764004		4.77750031		-0.00006298		 0.00018255		0.00000000	
O		1.36649702		4.79764009		4.77750031		 0.00006298		 0.00018255		0.00000000	
O		3.80962806		6.28236033		1.59250010		-0.00006298		-0.00018255		0.00000000	
O		3.80962806		5.14111999		1.59250010		-0.00041555		-0.00010721		-0.00000000	
O		1.36649702		5.93887991		4.77750031		 0.00041555		 0.00010721		-0.00000000	
O		1.22156604		0.39887996		4.77750031		-0.00041555		 0.00010721		0.00000000	
O		3.95456008		10.68111994		1.59250010		 0.00041555		-0.00010721		0.00000000	
O		1.29403127		1.69523997		0.19109995		-0.00033533		-0.00003458		 0.00013660	
O		3.88209381		9.38475993		6.17889994		 0.00033533		 0.00003458		-0.00013660	
O		3.88209381		3.84475998		6.17889994		-0.00033533		 0.00003458		-0.00013660	
O		1.29403127		7.23523992		0.19109995		 0.00033533		-0.00003458		 0.00013660	
O		3.88209381		9.38475993		3.37610015		 0.00033533		 0.00003458		 0.00013660	
O		1.29403127		1.69523997		2.99390025		-0.00033533		-0.00003458		-0.00013660	
O		1.29403127		7.23523992		2.99390025		 0.00033533		-0.00003458		-0.00013660	
O		3.88209381		3.84475998		3.37610015		-0.00033533		 0.00003458		 0.00013660	
