# total energy = -18360.4723654 eV	

CRYSTAL	
PRIMVEC	
		4.93537486		0.00000000		0.00000000	
		0.00000000		11.08000046		0.00000000	
		0.00000000		0.00000000		6.36999950	
PRIMCOORD
   28 1	
Mg		0.00000000		0.00000000		0.00000000		0.00000000		0.00000000		-0.00000000	
Mg		2.46768792		5.53999974		0.00000000		0.00000000		0.00000000		0.00000000	
Mg		0.00000000		0.00000000		3.18499975		0.00000000		-0.00000000		-0.00000000	
Mg		2.46768792		5.53999974		3.18499975		-0.00000000		0.00000000		0.00000000	
Ca		4.85147398		2.84755978		1.59249987		 0.00029271		 0.00042944		0.00000000	
Ca		0.08390088		8.23243970		4.77749962		-0.00029271		-0.00042944		0.00000000	
Ca		2.38378606		2.69243996		4.77749962		 0.00029271		-0.00042944		-0.00000000	
Ca		2.55158880		8.38755952		1.59249987		-0.00029271		 0.00042944		-0.00000000	
Si		1.98895607		0.95287973		1.59249987		-0.00029238		-0.00086583		0.00000000	
Si		2.94641879		10.12711974		4.77749962		 0.00029238		 0.00086583		0.00000000	
Si		4.45664399		4.58712000		4.77749962		-0.00029238		 0.00086583		-0.00000000	
Si		0.47873087		6.49287996		1.59249987		 0.00029238		-0.00086583		-0.00000000	
O		3.77062689		0.74235984		1.59249987		-0.00008605		-0.00030973		0.00000000	
O		1.16474896		10.33763964		4.77749962		 0.00008605		 0.00030973		0.00000000	
O		1.30293896		4.79763990		4.77749962		-0.00008605		 0.00030973		0.00000000	
O		3.63243590		6.28235958		1.59249987		 0.00008605		-0.00030973		0.00000000	
O		3.63243590		5.14111978		1.59249987		-0.00021015		-0.00008893		-0.00000000	
O		1.30293896		5.93887969		4.77749962		 0.00021015		 0.00008893		-0.00000000	
O		1.16474896		0.39887996		4.77749962		-0.00021015		 0.00008893		0.00000000	
O		3.77062689		10.68111952		1.59249987		 0.00021015		-0.00008893		0.00000000	
O		1.23384421		1.69524007		0.19110018		-0.00019973		 0.00009308		 0.00019349	
O		3.70153065		9.38475990		6.17889981		 0.00019973		-0.00009308		-0.00019349	
O		3.70153065		3.84475967		6.17889981		-0.00019973		-0.00009308		-0.00019349	
O		1.23384421		7.23523980		0.19110018		 0.00019973		 0.00009308		 0.00019349	
O		3.70153065		9.38475990		3.37609993		 0.00019973		-0.00009308		 0.00019349	
O		1.23384421		1.69524007		2.99390006		-0.00019973		 0.00009308		-0.00019349	
O		1.23384421		7.23523980		2.99390006		 0.00019973		 0.00009308		-0.00019349	
O		3.70153065		3.84475967		3.37609993		-0.00019973		-0.00009308		 0.00019349	
