# total energy = -18384.2763249 eV	

CRYSTAL	
PRIMVEC	
		4.57425005		0.00000000		0.00000000	
		0.00000000		11.08000006		0.00000000	
		0.00000000		0.00000000		6.36999999	
PRIMCOORD
   28 1	
Mg		0.00000000		0.00000000		0.00000000		0.00000000		0.00000000		0.00000000	
Mg		2.28712503		5.54000003		0.00000000		0.00000000		0.00000000		0.00000000	
Mg		0.00000000		0.00000000		3.18499999		0.00000000		0.00000000		0.00000000	
Mg		2.28712503		5.54000003		3.18499999		0.00000000		0.00000000		0.00000000	
Ca		4.49648826		2.84755985		1.59250000		 0.00023902		-0.00034018		0.00000000	
Ca		0.07776179		8.23244020		4.77749999		-0.00023902		 0.00034018		0.00000000	
Ca		2.20936323		2.69244017		4.77749999		 0.00023902		 0.00034018		-0.00000000	
Ca		2.36488682		8.38755988		1.59250000		-0.00023902		-0.00034018		0.00000000	
Si		1.84342323		0.95287987		1.59250000		 0.00062946		 0.00029904		-0.00000000	
Si		2.73082682		10.12712019		4.77749999		-0.00062946		-0.00029904		-0.00000000	
Si		4.13054825		4.58712016		4.77749999		 0.00062946		-0.00029904		0.00000000	
Si		0.44370180		6.49287990		1.59250000		-0.00062946		 0.00029904		0.00000000	
O		3.49472704		0.74236007		1.59250000		-0.00023681		-0.00026316		0.00000000	
O		1.07952301		10.33763998		4.77749999		 0.00023681		 0.00026316		0.00000000	
O		1.20760201		4.79763996		4.77749999		-0.00023681		 0.00026316		0.00000000	
O		3.36664804		6.28236010		1.59250000		 0.00023681		-0.00026316		0.00000000	
O		3.36664804		5.14111994		1.59250000		-0.00048225		-0.00021719		-0.00000000	
O		1.20760201		5.93888012		4.77749999		 0.00048225		 0.00021719		0.00000000	
O		1.07952301		0.39888009		4.77749999		-0.00048225		 0.00021719		0.00000000	
O		3.49472704		10.68111996		1.59250000		 0.00048225		-0.00021719		0.00000000	
O		1.14356297		1.69523994		0.19109982		-0.00010189		-0.00002568		 0.00037009	
O		3.43068800		9.38476012		6.17890017		 0.00010189		 0.00002568		-0.00037009	
O		3.43068800		3.84476009		6.17890017		-0.00010189		 0.00002568		-0.00037009	
O		1.14356297		7.23523997		0.19109982		 0.00010189		-0.00002568		 0.00037009	
O		3.43068800		9.38476012		3.37609981		 0.00010189		 0.00002568		 0.00037009	
O		1.14356297		1.69523994		2.99390018		-0.00010189		-0.00002568		-0.00037009	
O		1.14356297		7.23523997		2.99390018		 0.00010189		-0.00002568		-0.00037009	
O		3.43068800		3.84476009		3.37609981		-0.00010189		 0.00002568		 0.00037009	
