# total energy = -35733.471089 eV	

CRYSTAL	
PRIMVEC	
		8.25331485		0.00000000		0.00000000	
		-4.12665742		6.80721854		0.00000000	
		0.00000000		0.00000000		9.57300338	
PRIMCOORD
   46 1	
Mg		1.19549266		3.09524314		3.69230610		 0.00048445		-0.00040499		 0.00000673	
Mg		0.71432357		6.24562421		3.69230610		 0.00009009		 0.00013635		 0.00003006	
Mg		-1.90981706		4.27357220		3.69230610		 0.00019159		-0.00037050		 0.00046262	
Mg		2.93116477		3.71197705		8.47880614		-0.00048445		 0.00040499		 0.00000673	
Mg		3.41233302		0.56159516		8.47880614		-0.00009009		-0.00013635		 0.00003006	
Mg		6.03647448		2.53364716		8.47880614		-0.00019159		 0.00037050		 0.00046262	
Mg		0.85256660		1.65959966		1.07887662		-0.00023950		 0.00070855		 0.00016338	
Mg		2.19125509		6.68060526		1.07887662		-0.00002276		-0.00013821		-0.00005007	
Mg		-3.04382334		5.27423381		1.07887662		-0.00016104		-0.00060544		-0.00006998	
Mg		3.27409000		5.14761971		5.86537666		 0.00023950		-0.00070855		 0.00016338	
Mg		1.93540233		0.12661410		5.86537666		 0.00002276		 0.00013821		-0.00005007	
Mg		7.17047994		1.53298638		5.86537666		 0.00016104		 0.00060544		-0.00006998	
Mg		0.00000000		4.53814624		0.98506201		-0.00024673		-0.00022127		-0.00017360	
Mg		4.12665660		2.26907312		5.77156205		 0.00024673		 0.00022127		-0.00017360	
Si		4.12665825		2.26907312		1.66665872		-0.00005819		-0.00035359		-0.00002977	
Si		0.00000000		4.53814624		6.45315876		 0.00005819		 0.00035359		-0.00002977	
Si		0.00000000		0.00000000		3.84643097		 0.00006629		 0.00035976		-0.00017541	
Si		0.00000000		0.00000000		8.63293184		-0.00006629		-0.00035976		-0.00017541	
O		1.53841789		0.18651831		9.34324760		 0.00000123		-0.00005114		-0.00003917	
O		7.31449946		1.17560712		9.34324760		 0.00019384		-0.00028163		 0.00025730	
O		3.52705410		5.44509476		9.34324760		-0.00077614		 0.00020017		 0.00018782	
O		2.58824036		6.62070188		4.55674756		-0.00000123		 0.00005114		-0.00003917	
O		-3.18784286		5.63161307		4.55674756		-0.00019384		 0.00028163		 0.00025730	
O		0.59960332		1.36212461		4.55674756		 0.00077614		-0.00020017		 0.00018782	
O		3.52581610		0.67255272		4.63716126		 0.00042403		 0.00067211		 0.00022817	
O		5.87883616		2.57176674		4.63716126		-0.00010043		 0.00011177		-0.00024819	
O		2.97532000		3.56289907		4.63716126		 0.00001293		-0.00009635		 0.00027461	
O		0.60084132		6.13466582		9.42366048		-0.00042403		-0.00067211		 0.00022817	
O		-1.75217874		4.23545179		9.42366048		 0.00010043		-0.00011177		-0.00024819	
O		1.15133660		3.24432112		9.42366048		-0.00001293		 0.00009635		 0.00027461	
O		2.52922833		2.00608785		2.22093566		-0.00046158		 0.00043869		-0.00019934	
O		5.16451176		1.08302886		2.22093566		 0.00014355		 0.00017378		 0.00014685	
O		4.68623217		3.71810431		2.22093566		-0.00070490		 0.00000864		-0.00036774	
O		1.59742991		4.80113152		7.00743570		 0.00046158		-0.00043869		-0.00019934	
O		-1.03785434		5.72419050		7.00743570		-0.00014355		-0.00017378		 0.00014685	
O		-0.55957475		3.08911588		7.00743570		 0.00070490		-0.00000864		-0.00036774	
O		-0.39574562		2.97271278		2.29560505		-0.00024092		-0.00058895		-0.00030206	
O		1.62136370		4.99445716		2.29560505		 0.00011680		-0.00035603		-0.00044746	
O		-1.22561725		5.64726878		2.29560505		 0.00059953		-0.00050600		 0.00020590	
O		4.52240387		3.83450658		7.08210509		 0.00024092		 0.00058895		-0.00030206	
O		2.50529372		1.81276302		7.08210509		-0.00011680		 0.00035603		-0.00044746	
O		5.35227468		1.15994976		7.08210509		-0.00059953		 0.00050600		 0.00020590	
O		4.12665825		2.26907312		0.00000000		 0.00023094		 0.00023303		 0.00021831	
O		0.00000000		4.53814624		4.78650004		-0.00023094		-0.00023303		 0.00021831	
O		0.00000000		0.00000000		2.22380782		-0.00009112		-0.00014111		-0.00007893	
O		0.00000000		0.00000000		7.01030786		 0.00009112		 0.00014111		-0.00007893	
