# total energy = -35730.3049182 eV	

CRYSTAL	
PRIMVEC	
		7.46728509		0.00000000		0.00000000	
		-3.73364254		6.80722189		0.00000000	
		0.00000000		0.00000000		9.57299974	
PRIMCOORD
   46 1	
Mg		1.08163624		3.09524269		3.69230589		-0.00001851		-0.00034137		-0.00003349	
Mg		0.64629427		6.24562381		3.69230589		-0.00002699		-0.00036412		-0.00135727	
Mg		-1.72792977		4.27357206		3.69230589		-0.00038593		 0.00032757		-0.00116931	
Mg		2.65200630		3.71197696		8.47880577		 0.00001851		 0.00034137		-0.00003349	
Mg		3.08734902		0.56159510		8.47880577		 0.00002699		 0.00036412		-0.00135727	
Mg		5.46157231		2.53364684		8.47880577		 0.00038593		-0.00032757		-0.00116931	
Mg		0.77137130		1.65960038		1.07887708		 0.00089445		-0.00005852		-0.00006481	
Mg		1.98256419		6.68060511		1.07887708		-0.00105442		-0.00066855		 0.00005784	
Mg		-2.75393474		5.27423381		1.07887708		-0.00004260		 0.00080718		 0.00166431	
Mg		2.96227199		5.14762002		5.86537695		-0.00089445		 0.00005852		-0.00006481	
Mg		1.75107835		0.12661379		5.86537695		 0.00105442		 0.00066855		 0.00005784	
Mg		6.48757728		1.53298584		5.86537695		 0.00004260		-0.00080718		 0.00166431	
Mg		0.00000000		4.53814618		0.98506185		 0.00042619		-0.00019585		-0.00005059	
Mg		3.73364180		2.26907272		5.77156172		-0.00042619		 0.00019585		-0.00005059	
Si		3.73364329		2.26907272		1.66665920		-0.00034493		 0.00026451		 0.00069737	
Si		0.00000000		4.53814618		6.45315907		 0.00034493		-0.00026451		 0.00069737	
Si		0.00000000		0.00000000		3.84643140		-0.00012716		 0.00022408		 0.00045358	
Si		0.00000000		0.00000000		8.63293202		 0.00012716		-0.00022408		 0.00045358	
O		1.39190194		0.18651785		9.34324781		 0.00024735		 0.00040126		 0.00019360	
O		6.61788141		1.17560680		9.34324781		-0.00001140		-0.00028677		-0.00023849	
O		3.19114428		5.44509500		9.34324781		-0.00031132		-0.00040442		-0.00023633	
O		2.34174135		6.62070180		4.55674794		-0.00024735		-0.00040126		 0.00019360	
O		-2.88423886		5.63161285		4.55674794		 0.00001140		 0.00028677		-0.00023849	
O		0.54249826		1.36212465		4.55674794		 0.00031132		 0.00040442		-0.00023633	
O		3.19002419		0.67255298		4.63716089		 0.00045050		 0.00028062		-0.00046682	
O		5.31894717		2.57176733		4.63716089		 0.00036083		-0.00039417		-0.00061134	
O		2.69195627		3.56289934		4.63716089		 0.00030596		 0.00041547		-0.00058370	
O		0.54361835		6.13466592		9.42366076		-0.00045050		-0.00028062		-0.00046682	
O		-1.58530537		4.23545232		9.42366076		-0.00036083		 0.00039417		-0.00061134	
O		1.04168627		3.24432106		9.42366076		-0.00030596		-0.00041547		-0.00058370	
O		2.28834877		2.00608838		2.22093636		-0.00020974		 0.00006622		 0.00017435	
O		4.67265290		1.08302889		2.22093636		-0.00049029		-0.00030699		-0.00063628	
O		4.23992373		3.71810387		2.22093636		 0.00057816		-0.00018968		 0.00053115	
O		1.44529303		4.80113202		7.00743623		 0.00020974		-0.00006622		 0.00017435	
O		-0.93901110		5.72419076		7.00743623		 0.00049029		 0.00030699		-0.00063628	
O		-0.50628193		3.08911578		7.00743623		-0.00057816		 0.00018968		 0.00053115	
O		-0.35805632		2.97271275		2.29560473		-0.00011162		-0.00032052		 0.00034157	
O		1.46694816		4.99445704		2.29560473		 0.00010492		-0.00095604		 0.00037501	
O		-1.10889184		5.64726876		2.29560473		-0.00064343		-0.00049807		-0.00042850	
O		4.09169886		3.83450690		7.08210535		 0.00011162		 0.00032052		 0.00034157	
O		2.26669439		1.81276335		7.08210535		-0.00010492		 0.00095604		 0.00037501	
O		4.84253513		1.15995014		7.08210535		 0.00064343		 0.00049807		-0.00042850	
O		3.73364329		2.26907272		0.00000000		 0.00094243		-0.00011580		 0.00094690	
O		0.00000000		4.53814618		4.78649987		-0.00094243		 0.00011580		 0.00094690	
O		0.00000000		0.00000000		2.22380828		-0.00005838		-0.00053718		 0.00044126	
O		0.00000000		0.00000000		7.01030815		 0.00005838		 0.00053718		 0.00044126	
