# total energy = -35731.3346295 eV	

CRYSTAL	
PRIMVEC	
		8.05680807		0.00000000		0.00000000	
		-4.02840403		6.80722131		0.00000000	
		0.00000000		0.00000000		9.57300266	
PRIMCOORD
   46 1	
Mg		1.16702865		3.09524277		3.69230623		-0.00024235		-0.00018653		-0.00022288	
Mg		0.69731674		6.24562392		3.69230623		-0.00013681		 0.00002342		 0.00035543	
Mg		-1.86434539		4.27357190		3.69230623		-0.00008806		 0.00003858		-0.00014495	
Mg		2.86137539		3.71197693		8.47880595		 0.00024235		 0.00018653		-0.00022288	
Mg		3.33108730		0.56159497		8.47880595		 0.00013681		-0.00002342		 0.00035543	
Mg		5.89274942		2.53364699		8.47880595		 0.00008806		-0.00003858		-0.00014495	
Mg		0.83226827		1.65960014		1.07887669		 0.00002132		-0.00002083		 0.00034722	
Mg		2.13908174		6.68060535		1.07887669		 0.00055777		 0.00011158		 0.00005491	
Mg		-2.97135082		5.27423391		1.07887669		 0.00051047		 0.00002596		 0.00018541	
Mg		3.19613576		5.14762036		5.86537722		-0.00002132		 0.00002083		 0.00034722	
Mg		1.88932069		0.12661435		5.86537722		-0.00055777		-0.00011158		 0.00005491	
Mg		6.99975485		1.53298579		5.86537722		-0.00051047		-0.00002596		 0.00018541	
Mg		0.00000000		4.53814619		0.98506161		 0.00070457		-0.00016186		-0.00028786	
Mg		4.02840403		2.26907269		5.77156214		-0.00070457		 0.00016186		-0.00028786	
Si		4.02840403		2.26907269		1.66665871		 0.00003727		-0.00016501		-0.00034742	
Si		0.00000000		4.53814619		6.45315924		-0.00003727		 0.00016501		-0.00034742	
Si		0.00000000		0.00000000		3.84643136		 0.00030433		 0.00007260		-0.00001632	
Si		0.00000000		0.00000000		8.63293188		-0.00030433		-0.00007260		-0.00001632	
O		1.50178902		0.18651833		9.34324828		 0.00005332		 0.00013690		-0.00000025	
O		7.14034615		1.17560673		9.34324828		-0.00006322		-0.00018995		 0.00025884	
O		3.44307693		5.44509544		9.34324828		 0.00025337		-0.00021512		-0.00006887	
O		2.52661501		6.62070217		4.55674775		-0.00005332		-0.00013690		-0.00000025	
O		-3.11194212		5.63161296		4.55674775		 0.00006322		 0.00018995		 0.00025884	
O		0.58532711		1.36212506		4.55674775		-0.00025337		 0.00021512		-0.00006887	
O		3.44186841		0.67255333		4.63716114		 0.00014461		-0.00022437		-0.00039160	
O		5.73886439		2.57176697		4.63716114		 0.00024772		-0.00002385		 0.00026518	
O		2.90447931		3.56289939		4.63716114		 0.00037909		-0.00022203		-0.00006167	
O		0.58653563		6.13466636		9.42366086		-0.00014461		 0.00022437		-0.00039160	
O		-1.71046035		4.23545192		9.42366086		-0.00024772		 0.00002385		 0.00026518	
O		1.12392473		3.24432111		9.42366086		-0.00037909		 0.00022203		-0.00006167	
O		2.46900883		2.00608801		2.22093568		-0.00020078		-0.00028629		 0.00019934	
O		5.04154684		1.08302917		2.22093568		-0.00005176		 0.00016951		 0.00018371	
O		4.57465482		3.71810413		2.22093568		 0.00008302		-0.00006257		 0.00047093	
O		1.55939601		4.80113169		7.00743621		 0.00020078		 0.00028629		 0.00019934	
O		-1.01314361		5.72419133		7.00743621		 0.00005176		-0.00016951		 0.00018371	
O		-0.54625239		3.08911637		7.00743621		-0.00008302		 0.00006257		 0.00047093	
O		-0.38632395		2.97271322		2.29560537		-0.00008114		 0.00015560		 0.00001400	
O		1.58275994		4.99445722		2.29560537		 0.00015142		-0.00021581		-0.00010900	
O		-1.19643600		5.64726895		2.29560537		-0.00012752		 0.00004129		-0.00022740	
O		4.41472717		3.83450728		7.08210510		 0.00008114		-0.00015560		 0.00001400	
O		2.44564409		1.81276328		7.08210510		-0.00015142		 0.00021581		-0.00010900	
O		5.22484003		1.15994994		7.08210510		 0.00012752		-0.00004129		-0.00022740	
O		4.02840403		2.26907269		0.00000000		-0.00009769		-0.00013585		-0.00025633	
O		0.00000000		4.53814619		4.78649972		 0.00009769		 0.00013585		-0.00025633	
O		0.00000000		0.00000000		2.22380794		 0.00012395		 0.00010167		-0.00020041	
O		0.00000000		0.00000000		7.01030766		-0.00012395		-0.00010167		-0.00020041	
