# total energy = -7658.30268523 eV	

CRYSTAL	
PRIMVEC	
		5.81773498		0.00000000		0.00000000	
		-2.90886749		4.79838636		0.00000000	
		0.00000000		0.00000000		4.84349708	
PRIMCOORD
   15 1	
Mg		0.00000000		0.00000000		0.00000000		0.00000000		0.00000000		0.00000000	
Mg		0.00000000		3.19892521		0.05279420		-0.00091599		 0.00005461		 0.00003573	
Mg		2.90886691		1.59946173		4.79070579		 0.00091599		-0.00005461		-0.00003573	
O		0.95876272		1.60554010		1.06556994		-0.00047463		-0.00000224		 0.00048639	
O		1.95010418		3.19284684		3.77793005		 0.00047463		 0.00000224		-0.00048639	
O		0.96952612		4.78639077		1.06556994		-0.00011900		-0.00006360		 0.00013033	
O		1.93934195		0.01199617		3.77793005		 0.00011900		 0.00006360		-0.00013033	
O		-1.92828826		3.20484185		1.06556994		 0.00008253		 0.00007823		 0.00001825	
O		4.83715575		1.59354393		3.77793005		-0.00008253		-0.00007823		-0.00001825	
H		0.82524571		1.67607723		2.04395705		 0.00062383		-0.00020390		 0.00015085	
H		2.08362178		3.12230971		2.79954294		-0.00062383		 0.00020390		-0.00015085	
H		0.97214293		4.64099976		2.04395705		-0.00029077		 0.00052114		 0.00028433	
H		1.93672397		0.15738718		2.79954294		 0.00029077		-0.00052114		-0.00028433	
H		-1.79738922		3.27969690		2.04395705		-0.00092809		-0.00032688		 0.00023824	
H		4.70625671		1.51868888		2.79954294		 0.00092809		 0.00032688		-0.00023824	
