# total energy = -7658.33415564 eV	

CRYSTAL	
PRIMVEC	
		5.12514680		0.00000000		0.00000000	
		-2.56257340		4.79838794		0.00000000	
		0.00000000		0.00000000		4.84349948	
PRIMCOORD
   15 1	
Mg		0.00000000		0.00000000		0.00000000		0.00000000		0.00000000		0.00000000	
Mg		0.00000000		3.19892495		0.05279414		-0.00012486		 0.00001618		-0.00019800	
Mg		2.56257391		1.59946196		4.79070586		 0.00012486		-0.00001618		 0.00019800	
O		0.84462419		1.60553988		1.06556978		-0.00046276		 0.00005033		-0.00068836	
O		1.71794869		3.19284704		3.77792970		 0.00046276		-0.00005033		 0.00068836	
O		0.85410571		4.78639100		1.06556978		 0.00028303		-0.00040965		-0.00014572	
O		1.70846769		0.01199592		3.77792970		-0.00028303		 0.00040965		 0.00014572	
O		-1.69872991		3.20484193		1.06556978		 0.00092403		 0.00027806		 0.00028469	
O		4.26130382		1.59354396		3.77792970		-0.00092403		-0.00027806		-0.00028469	
H		0.72700207		1.67607676		2.04395672		-0.00086852		 0.00021738		 0.00044159	
H		1.83557184		3.12230965		2.79954276		 0.00086852		-0.00021738		-0.00044159	
H		0.85641203		4.64099981		2.04395672		-0.00026073		-0.00079790		 0.00046265	
H		1.70616188		0.15738711		2.79954276		 0.00026073		 0.00079790		-0.00046265	
H		-1.58341410		3.27969675		2.04395672		-0.00042169		 0.00046191		 0.00028515	
H		4.14598802		1.51868914		2.79954276		 0.00042169		-0.00046191		-0.00028515	
