# total energy = -7658.10874477 eV	

CRYSTAL	
PRIMVEC	
		4.98662991		0.00000000		0.00000000	
		-2.49331495		4.79838463		0.00000000	
		0.00000000		0.00000000		4.84349867	
PRIMCOORD
   15 1	
Mg		0.00000000		0.00000000		0.00000000		0.00000000		0.00000000		0.00000000	
Mg		0.00000000		3.19892508		0.05279395		 0.00019969		-0.00000693		-0.00037042	
Mg		2.49331495		1.59946204		4.79070571		-0.00019969		 0.00000693		 0.00037042	
O		0.82179711		1.60553975		1.06557001		 0.00034465		 0.00031904		 0.00065493	
O		1.67151785		3.19284688		3.77793016		-0.00034465		-0.00031904		-0.00065493	
O		0.83102187		4.78639078		1.06557001		-0.00000200		-0.00028131		 0.00035687	
O		1.66229308		0.01199584		3.77793016		 0.00000200		 0.00028131		-0.00035687	
O		-1.65281798		3.20484172		1.06557001		 0.00030394		 0.00009344		 0.00064611	
O		4.14613294		1.59354391		3.77793016		-0.00030394		-0.00009344		-0.00064611	
H		0.70735395		1.67607712		2.04395677		 0.00053336		 0.00017140		-0.00012861	
H		1.78596200		3.12231000		2.79954290		-0.00053336		-0.00017140		 0.00012861	
H		0.83326586		4.64100010		2.04395677		 0.00017435		-0.00016269		-0.00032335	
H		1.66004910		0.15738702		2.79954290		-0.00017435		 0.00016269		 0.00032335	
H		-1.54061881		3.27969701		2.04395677		-0.00002063		 0.00026931		-0.00086423	
H		4.03393376		1.51868911		2.79954290		 0.00002063		-0.00026931		 0.00086423	
