# total energy = -24715.2162708 eV	

CRYSTAL	
PRIMVEC	
		10.12109975		0.00000000		0.00000000	
		0.00000000		8.62100095		0.00000000	
		-1.07634860		0.00000000		4.80946563	
PRIMCOORD
   40 1	
Si		2.79685964		0.78882232		1.01575964		-0.00000608		 0.00060856		 0.00054148	
Si		6.24789252		7.83217863		3.79371004		 0.00000608		-0.00060856		-0.00054148	
Si		6.78606581		0.78882232		1.38897520		 0.00000574		 0.00060894		-0.00054178	
Si		2.25868636		7.83217863		3.42049448		-0.00000574		-0.00060894		 0.00054178	
Si		7.85740952		5.09932178		1.01575964		-0.00057119		 0.00031695		 0.00030319	
Si		1.18734164		3.52167917		3.79371004		 0.00057119		-0.00031695		-0.00030319	
Si		1.72551593		5.09932178		1.38897520		 0.00057098		 0.00031718		-0.00030337	
Si		7.31923623		3.52167917		3.42049448		-0.00057098		-0.00031718		 0.00030337	
Mg		-0.26908664		7.80803981		1.20236843		 0.00000002		 0.00014049		-0.00000002	
Mg		-0.80726094		0.81296013		3.60710327		-0.00000002		-0.00014049		 0.00000002	
Mg		4.79146323		3.49754034		1.20236843		0.00000000		 0.00017159		-0.00000002	
Mg		4.25328893		5.12345959		3.60710327		-0.00000000		-0.00017159		 0.00000002	
Mg		-0.26908664		2.36387798		1.20236843		-0.00000001		-0.00058216		-0.00000000	
Mg		-0.80726094		6.25712195		3.60710327		 0.00000001		 0.00058216		0.00000000	
Mg		4.79146323		6.67437745		1.20236843		-0.00000002		-0.00064126		-0.00000001	
Mg		4.25328893		1.94662148		3.60710327		 0.00000002		 0.00064126		 0.00000001	
O		1.08010049		0.78795899		0.66851584		-0.00015138		 0.00018908		-0.00035240	
O		7.96465067		7.83304095		4.14095384		 0.00015138		-0.00018908		 0.00035240	
O		8.50282496		0.78795899		1.73621900		 0.00015156		 0.00018913		 0.00035247	
O		0.54192821		7.83304095		3.07325170		-0.00015156		-0.00018913		-0.00035247	
O		6.14065137		5.09845947		0.66851584		 0.00015137		 0.00021685		-0.00027527	
O		2.90410079		3.52254047		4.14095384		-0.00015137		-0.00021685		 0.00027527	
O		3.44227509		5.09845947		1.73621900		-0.00015127		 0.00021678		 0.00027531	
O		5.60247809		3.52254047		3.07325170		 0.00015127		-0.00021678		-0.00027531	
O		3.45099745		2.04834966		1.76507628		-0.00003595		 0.00003489		 0.00018360	
O		5.59375370		6.57265129		3.04439543		 0.00003595		-0.00003489		-0.00018360	
O		6.13192800		2.04834966		0.63965958		 0.00003612		 0.00003463		-0.00018341	
O		2.91282518		6.57265129		4.16981112		-0.00003612		-0.00003463		 0.00018341	
O		8.51154834		6.35885014		1.76507628		 0.00019897		 0.00034745		 0.00036978	
O		0.53320383		2.26214980		3.04439543		-0.00019897		-0.00034745		-0.00036978	
O		1.07137812		6.35885014		0.63965958		-0.00019887		 0.00034722		-0.00036964	
O		7.97337506		2.26214980		4.16981112		 0.00019887		-0.00034722		 0.00036964	
O		2.62837471		0.52846715		4.40066632		 0.00027752		 0.00007133		 0.00043517	
O		6.41637746		8.09253279		0.40880539		-0.00027752		-0.00007133		-0.00043517	
O		5.87820417		0.52846715		2.81354023		-0.00027749		 0.00007125		-0.00043516	
O		3.16654799		8.09253279		1.99592945		 0.00027749		-0.00007125		 0.00043516	
O		7.68892458		4.83896661		4.40066632		 0.00036150		 0.00010663		 0.00045012	
O		1.35582758		3.78203332		0.40880539		-0.00036150		-0.00010663		-0.00045012	
O		0.81765430		4.83896661		2.81354023		-0.00036149		 0.00010658		-0.00045008	
O		8.22709888		3.78203332		1.99592945		 0.00036149		-0.00010658		 0.00045008	
