# total energy = -24711.3593166 eV	

CRYSTAL	
PRIMVEC	
		8.51092466		0.00000000		0.00000000	
		0.00000000		8.62099645		0.00000000	
		-0.90511130		0.00000000		4.80947246	
PRIMCOORD
   40 1	
Si		2.35190466		0.78882229		1.01576013		-0.00030144		 0.00024402		-0.00021920	
Si		5.25390954		7.83217842		3.79370977		 0.00030144		-0.00024402		 0.00021920	
Si		5.70646519		0.78882229		1.38897524		 0.00029937		 0.00024582		 0.00021736	
Si		1.89934986		7.83217842		3.42049466		-0.00029937		-0.00024582		-0.00021736	
Si		6.60736784		5.09932221		1.01576013		-0.00062333		 0.00004231		-0.00039094	
Si		0.99844721		3.52167849		3.79370977		 0.00062333		-0.00004231		 0.00039094	
Si		1.45100201		5.09932221		1.38897524		 0.00062446		 0.00004117		 0.00039205	
Si		6.15481134		3.52167849		3.42049466		-0.00062446		-0.00004117		-0.00039205	
Mg		-0.22627825		7.80803973		1.20236811		 0.00000002		-0.00046576		-0.00000003	
Mg		-0.67883305		0.81296012		3.60710264		-0.00000002		 0.00046576		 0.00000003	
Mg		4.02918493		3.49753981		1.20236811		-0.00000002		-0.00044273		 0.00000001	
Mg		3.57663013		5.12346004		3.60710264		 0.00000002		 0.00044273		-0.00000001	
Mg		-0.22627825		2.36387783		1.20236811		 0.00000001		-0.00042040		0.00000000	
Mg		-0.67883305		6.25712202		3.60710264		-0.00000001		 0.00042040		-0.00000000	
Mg		4.02918493		6.67437776		1.20236811		 0.00000002		-0.00045694		-0.00000000	
Mg		3.57663013		1.94662209		3.60710264		-0.00000002		 0.00045694		0.00000000	
O		0.90826716		0.78795928		0.66851611		-0.00027012		 0.00025058		-0.00062610	
O		6.69754790		7.83304057		4.14095379		 0.00027012		-0.00025058		 0.00062610	
O		7.15010270		0.78795928		1.73621927		 0.00027171		 0.00025054		 0.00062658	
O		0.45571235		7.83304057		3.07325149		-0.00027171		-0.00025054		-0.00062658	
O		5.16372948		5.09846005		0.66851611		-0.00003978		 0.00027022		-0.00057553	
O		2.44208472		3.52254065		4.14095379		 0.00003978		-0.00027022		 0.00057553	
O		2.89463952		5.09846005		1.73621927		 0.00003893		 0.00027019		 0.00057530	
O		4.71117468		3.52254065		3.07325149		-0.00003893		-0.00027019		-0.00057530	
O		2.90197594		2.04834977		1.76507556		-0.00001685		-0.00025852		 0.00002934	
O		4.70383912		6.57265093		3.04439520		 0.00001685		 0.00025852		-0.00002934	
O		5.15639392		2.04834977		0.63965982		 0.00001752		-0.00026029		-0.00002820	
O		2.44942114		6.57265093		4.16981094		-0.00001752		 0.00026029		 0.00002820	
O		7.15743912		6.35884969		1.76507556		 0.00008332		-0.00005592		 0.00014030	
O		0.44837594		2.26215015		3.04439520		-0.00008332		 0.00005592		-0.00014030	
O		0.90093074		6.35884969		0.63965982		-0.00008371		-0.00005485		-0.00014095	
O		6.70488261		2.26215015		4.16981094		 0.00008371		 0.00005485		 0.00014095	
O		2.21022415		0.52846714		4.40066551		-0.00004863		-0.00035146		-0.00015775	
O		5.39559090		8.09253271		0.40880524		 0.00004863		 0.00035146		 0.00015775	
O		4.94303440		0.52846714		2.81353977		 0.00004859		-0.00035155		 0.00015788	
O		2.66277895		8.09253271		1.99593013		-0.00004859		 0.00035155		-0.00015788	
O		6.46568648		4.83896707		4.40066551		-0.00001413		-0.00032897		-0.00014213	
O		1.14012772		3.78203278		0.40880524		 0.00001413		 0.00032897		 0.00014213	
O		0.68757292		4.83896707		2.81353977		 0.00001415		-0.00032886		 0.00014193	
O		6.91824213		3.78203278		1.99593013		-0.00001415		 0.00032886		-0.00014193	
