# total energy = -24714.753523 eV	

CRYSTAL	
PRIMVEC	
		8.97097491		0.00000000		0.00000000	
		0.00000000		8.62099924		0.00000000	
		-0.95403627		0.00000000		4.80947421	
PRIMCOORD
   40 1	
Si		2.47903472		0.78882231		1.01576016		 0.00063189		-0.00018535		-0.00006695	
Si		5.53790482		7.83217872		3.79370956		-0.00063189		 0.00018535		 0.00006695	
Si		6.01492205		0.78882231		1.38897515		-0.00063322		-0.00018389		 0.00006564	
Si		2.00201659		7.83217872		3.42049458		 0.00063322		 0.00018389		-0.00006564	
Si		6.96452307		5.09932193		1.01576016		 0.00059031		-0.00021077		-0.00008795	
Si		1.05241736		3.52167910		3.79370956		-0.00059031		 0.00021077		 0.00008795	
Si		1.52943460		5.09932193		1.38897515		-0.00059199		-0.00020881		 0.00008618	
Si		6.48750494		3.52167910		3.42049458		 0.00059199		 0.00020881		-0.00008618	
Mg		-0.23850862		7.80803962		1.20236810		 0.00000004		 0.00060157		-0.00000001	
Mg		-0.71552675		0.81295961		3.60710252		-0.00000004		-0.00060157		 0.00000001	
Mg		4.24697884		3.49754000		1.20236810		 0.00000006		 0.00060419		-0.00000001	
Mg		3.76996070		5.12346013		3.60710252		-0.00000006		-0.00060419		 0.00000001	
Mg		-0.23850862		2.36387790		1.20236810		-0.00000002		 0.00012707		-0.00000008	
Mg		-0.71552675		6.25712223		3.60710252		 0.00000002		-0.00012707		 0.00000008	
Mg		4.24697884		6.67437752		1.20236810		-0.00000002		 0.00012354		-0.00000006	
Mg		3.76996070		1.94662171		3.60710252		 0.00000002		-0.00012354		 0.00000006	
O		0.95736271		0.78795930		0.66851615		-0.00029751		-0.00008597		 0.00069197	
O		7.05957683		7.83304083		4.14095358		 0.00029751		 0.00008597		-0.00069197	
O		7.53659497		0.78795930		1.73621916		 0.00029854		-0.00008610		-0.00069161	
O		0.48034457		7.83304083		3.07325236		-0.00029854		 0.00008610		 0.00069161	
O		5.44285016		5.09845982		0.66851615		-0.00026844		-0.00008392		 0.00069882	
O		2.57409027		3.52254121		4.14095358		 0.00026844		 0.00008392		-0.00069882	
O		3.05110661		5.09845982		1.73621916		 0.00026965		-0.00008401		-0.00069840	
O		4.96583292		3.52254121		3.07325236		-0.00026965		 0.00008401		 0.00069840	
O		3.05883959		2.04834988		1.76507609		 0.00014827		-0.00058841		 0.00027936	
O		4.95809994		6.57265115		3.04439453		-0.00014827		 0.00058841		-0.00027936	
O		5.43511808		2.04834988		0.63966012		-0.00014776		-0.00058971		-0.00027848	
O		2.58182236		6.57265115		4.16981051		 0.00014776		 0.00058971		 0.00027848	
O		7.54432705		6.35884950		1.76507609		 0.00016352		-0.00056189		 0.00029353	
O		0.47261339		2.26214974		3.04439453		-0.00016352		 0.00056189		-0.00029353	
O		0.94962973		6.35884950		0.63966012		-0.00016277		-0.00056363		-0.00029238	
O		7.06730892		2.26214974		4.16981051		 0.00016277		 0.00056363		 0.00029238	
O		2.32969580		0.52846668		4.40066599		-0.00046802		 0.00068721		-0.00068732	
O		5.68724374		8.09253256		0.40880464		 0.00046802		-0.00068721		 0.00068732	
O		5.21022561		0.52846668		2.81353995		 0.00046792		 0.00068709		 0.00068742	
O		2.80671304		8.09253256		1.99592978		-0.00046792		-0.00068709		-0.00068742	
O		6.81518325		4.83896719		4.40066599		-0.00046248		 0.00068982		-0.00068576	
O		1.20175718		3.78203294		0.40880464		 0.00046248		-0.00068982		 0.00068576	
O		0.72473905		4.83896719		2.81353995		 0.00046233		 0.00068963		 0.00068600	
O		7.29220049		3.78203294		1.99592978		-0.00046233		-0.00068963		-0.00068600	
