# total energy = -24713.3425008 eV	

CRYSTAL	
PRIMVEC	
		8.74095005		0.00000000		0.00000000	
		0.00000000		8.62099799		0.00000000	
		-0.92957381		0.00000000		4.80947176	
PRIMCOORD
   40 1	
Si		2.41546977		0.78882179		1.01575958		-0.00056376		-0.00007645		-0.00041225	
Si		5.39590734		7.83217882		3.79371043		 0.00056376		 0.00007645		 0.00041225	
Si		5.86069425		0.78882179		1.38897542		 0.00056125		-0.00007379		 0.00040988	
Si		1.95068373		7.83217882		3.42049459		-0.00056125		 0.00007379		-0.00040988	
Si		6.78594479		5.09932166		1.01575958		-0.00001896		 0.00021839		-0.00015434	
Si		1.02543232		3.52167895		3.79371043		 0.00001896		-0.00021839		 0.00015434	
Si		1.49021922		5.09932166		1.38897542		 0.00001855		 0.00021920		 0.00015376	
Si		6.32115876		3.52167895		3.42049459		-0.00001855		-0.00021920		-0.00015376	
Mg		-0.23239302		7.80803981		1.20236838		 0.00000004		-0.00071198		-0.00000004	
Mg		-0.69717992		0.81295993		3.60710338		-0.00000004		 0.00071198		 0.00000004	
Mg		4.13808201		3.49753994		1.20236838		 0.00000004		-0.00074027		-0.00000002	
Mg		3.67329510		5.12345980		3.60710338		-0.00000004		 0.00074027		 0.00000002	
Mg		-0.23239302		2.36387806		1.20236838		-0.00000001		-0.00010325		-0.00000006	
Mg		-0.69717992		6.25712168		3.60710338		 0.00000001		 0.00010325		 0.00000006	
Mg		4.13808201		6.67437793		1.20236838		-0.00000005		-0.00006521		-0.00000005	
Mg		3.67329510		1.94662181		3.60710338		 0.00000005		 0.00006521		 0.00000005	
O		0.93281496		0.78795906		0.66851573		 0.00019188		 0.00024895		-0.00048019	
O		6.87856215		7.83304068		4.14095428		-0.00019188		-0.00024895		 0.00048019	
O		7.34334906		0.78795906		1.73621928		-0.00018998		 0.00024882		 0.00048080	
O		0.46802805		7.83304068		3.07325161		 0.00018998		-0.00024882		-0.00048080	
O		5.30328998		5.09845980		0.66851573		-0.00020168		 0.00022274		-0.00056735	
O		2.50808712		3.52254081		4.14095428		 0.00020168		-0.00022274		 0.00056735	
O		2.97287403		5.09845980		1.73621928		 0.00020207		 0.00022266		 0.00056752	
O		4.83850395		3.52254081		3.07325161		-0.00020207		-0.00022266		-0.00056752	
O		2.98040786		2.04834986		1.76507578		 0.00010566		 0.00007015		 0.00008976	
O		4.83096925		6.57265075		3.04439511		-0.00010566		-0.00007015		-0.00008976	
O		5.29575616		2.04834986		0.63966010		-0.00010474		 0.00006778		-0.00008821	
O		2.51562095		6.57265075		4.16981078		 0.00010474		-0.00006778		 0.00008821	
O		7.35088288		6.35884973		1.76507578		-0.00006075		-0.00023495		-0.00007830	
O		0.46049423		2.26215001		3.04439511		 0.00006075		 0.00023495		 0.00007830	
O		0.92528113		6.35884973		0.63966010		 0.00006096		-0.00023558		 0.00007874	
O		6.88609597		2.26215001		4.16981078		-0.00006096		 0.00023558		-0.00007874	
O		2.26996004		0.52846735		4.40066627		-0.00005832		-0.00021757		-0.00010470	
O		5.54141706		8.09253326		0.40880462		 0.00005832		 0.00021757		 0.00010470	
O		5.07663103		0.52846735		2.81353962		 0.00005819		-0.00021781		 0.00010500	
O		2.73474608		8.09253326		1.99593039		-0.00005819		 0.00021781		-0.00010500	
O		6.64043507		4.83896722		4.40066627		-0.00012403		-0.00024618		-0.00011957	
O		1.17094204		3.78203339		0.40880462		 0.00012403		 0.00024618		 0.00011957	
O		0.70615601		4.83896722		2.81353962		 0.00012395		-0.00024630		 0.00011970	
O		7.10522110		3.78203339		1.99593039		-0.00012395		 0.00024630		-0.00011970	
