# total energy = -18355.9978808 eV	

CRYSTAL	
PRIMVEC	
		4.81499975		0.00000000		0.00000000	
		0.00000000		9.97199930		0.00000000	
		0.00000000		0.00000000		6.36999910	
PRIMCOORD
   28 1	
Mg		0.00000000		0.00000000		0.00000000		0.00000000		-0.00000000		-0.00000000	
Mg		2.40749987		4.98599965		0.00000000		0.00000000		0.00000000		0.00000000	
Mg		0.00000000		0.00000000		3.18500003		0.00000000		0.00000000		0.00000000	
Mg		2.40749987		4.98599965		3.18500003		0.00000000		0.00000000		0.00000000	
Ca		4.73314475		2.56280384		1.59250002		 0.00046743		-0.00030015		-0.00000000	
Ca		0.08185500		7.40919546		4.77749957		-0.00046743		 0.00030015		-0.00000000	
Ca		2.32564488		2.42319581		4.77749957		 0.00046743		 0.00030015		0.00000000	
Ca		2.48935487		7.54880349		1.59250002		-0.00046743		-0.00030015		0.00000000	
Si		1.94044490		0.85759190		1.59250002		 0.00005324		 0.00008482		0.00000000	
Si		2.87455485		9.11440740		4.77749957		-0.00005324		-0.00008482		0.00000000	
Si		4.34794477		4.12840775		4.77749957		 0.00005324		-0.00008482		-0.00000000	
Si		0.46705498		5.84359155		1.59250002		-0.00005324		 0.00008482		-0.00000000	
O		3.67865981		0.66812407		1.59250002		-0.00009361		-0.00058287		0.00000000	
O		1.13633994		9.30387571		4.77749957		 0.00009361		 0.00058287		-0.00000000	
O		1.27115993		4.31787558		4.77749957		-0.00009361		 0.00058287		0.00000000	
O		3.54383981		5.65412372		1.59250002		 0.00009361		-0.00058287		0.00000000	
O		3.54383981		4.62700771		1.59250002		-0.00009679		 0.00061114		0.00000000	
O		1.27115993		5.34499158		4.77749957		 0.00009679		-0.00061114		0.00000000	
O		1.13633994		0.35899194		4.77749957		-0.00009679		-0.00061114		-0.00000000	
O		3.67865981		9.61300736		1.59250002		 0.00009679		 0.00061114		-0.00000000	
O		1.20374994		1.52571597		0.19110012		-0.00011633		 0.00020136		 0.00017316	
O		3.61124981		8.44628333		6.17889946		 0.00011633		-0.00020136		-0.00017316	
O		3.61124981		3.46028368		6.17889946		-0.00011633		-0.00020136		-0.00017316	
O		1.20374994		6.51171562		0.19110012		 0.00011633		 0.00020136		 0.00017316	
O		3.61124981		8.44628333		3.37609967		 0.00011633		-0.00020136		 0.00017316	
O		1.20374994		1.52571597		2.99389991		-0.00011633		 0.00020136		-0.00017316	
O		1.20374994		6.51171562		2.99389991		 0.00011633		 0.00020136		-0.00017316	
O		3.61124981		3.46028368		3.37609967		-0.00011633		-0.00020136		 0.00017316	
