# total energy = -18390.0389261 eV	

CRYSTAL	
PRIMVEC	
		4.81499975		0.00000000		0.00000000	
		0.00000000		12.18799700		0.00000000	
		0.00000000		0.00000000		6.36999910	
PRIMCOORD
   28 1	
Mg		0.00000000		0.00000000		0.00000000		0.00000000		0.00000000		0.00000000	
Mg		2.40749987		6.09399946		0.00000000		0.00000000		0.00000000		0.00000000	
Mg		0.00000000		0.00000000		3.18500003		0.00000000		0.00000000		0.00000000	
Mg		2.40749987		6.09399946		3.18500003		0.00000000		0.00000000		0.00000000	
Ca		4.73314475		3.13231575		1.59250002		 0.00006596		 0.00032089		-0.00000000	
Ca		0.08185500		9.05568366		4.77749957		-0.00006596		-0.00032089		0.00000000	
Ca		2.32564488		2.96168371		4.77749957		 0.00006596		-0.00032089		0.00000000	
Ca		2.48935487		9.22631569		1.59250002		-0.00006596		 0.00032089		-0.00000000	
Si		1.94044490		1.04816815		1.59250002		-0.00066327		-0.00002789		-0.00000000	
Si		2.87455485		11.13983126		4.77749957		 0.00066327		 0.00002789		-0.00000000	
Si		4.34794477		5.04583180		4.77749957		-0.00066327		 0.00002789		0.00000000	
Si		0.46705498		7.14216761		1.59250002		 0.00066327		-0.00002789		0.00000000	
O		3.67865981		0.81659603		1.59250002		-0.00088792		 0.00009220		-0.00000000	
O		1.13633994		11.37140338		4.77749957		 0.00088792		-0.00009220		0.00000000	
O		1.27115993		5.27740391		4.77749957		-0.00088792		-0.00009220		0.00000000	
O		3.54383981		6.91059549		1.59250002		 0.00088792		 0.00009220		0.00000000	
O		3.54383981		5.65523165		1.59250002		-0.00034577		-0.00005208		0.00000000	
O		1.27115993		6.53276776		4.77749957		 0.00034577		 0.00005208		-0.00000000	
O		1.13633994		0.43876781		4.77749957		-0.00034577		 0.00005208		0.00000000	
O		3.67865981		11.74923159		1.59250002		 0.00034577		-0.00005208		0.00000000	
O		1.20374994		1.86476370		0.19110012		 0.00017676		 0.00025314		 0.00036723	
O		3.61124981		10.32323523		6.17889946		-0.00017676		-0.00025314		-0.00036723	
O		3.61124981		4.22923577		6.17889946		 0.00017676		-0.00025314		-0.00036723	
O		1.20374994		7.95876364		0.19110012		-0.00017676		 0.00025314		 0.00036723	
O		3.61124981		10.32323523		3.37609967		-0.00017676		-0.00025314		 0.00036723	
O		1.20374994		1.86476370		2.99389991		 0.00017676		 0.00025314		-0.00036723	
O		1.20374994		7.95876364		2.99389991		-0.00017676		 0.00025314		-0.00036723	
O		3.61124981		4.22923577		3.37609967		 0.00017676		-0.00025314		 0.00036723	
