# total energy = -18390.8883619 eV	

CRYSTAL	
PRIMVEC	
		4.81499975		0.00000000		0.00000000	
		0.00000000		11.63399757		0.00000000	
		0.00000000		0.00000000		6.36999910	
PRIMCOORD
   28 1	
Mg		0.00000000		0.00000000		0.00000000		0.00000000		0.00000000		0.00000000	
Mg		2.40749987		5.81699975		0.00000000		0.00000000		0.00000000		0.00000000	
Mg		0.00000000		0.00000000		3.18500003		0.00000000		0.00000000		-0.00000000	
Mg		2.40749987		5.81699975		3.18500003		0.00000000		0.00000000		0.00000000	
Ca		4.73314475		2.98993765		1.59250002		 0.00045187		 0.00004824		-0.00000000	
Ca		0.08185500		8.64406137		4.77749957		-0.00045187		-0.00004824		0.00000000	
Ca		2.32564488		2.82706162		4.77749957		 0.00045187		-0.00004824		0.00000000	
Ca		2.48935487		8.80693740		1.59250002		-0.00045187		 0.00004824		0.00000000	
Si		1.94044490		1.00052372		1.59250002		-0.00025959		-0.00023671		0.00000000	
Si		2.87455485		10.63347529		4.77749957		 0.00025959		 0.00023671		-0.00000000	
Si		4.34794477		4.81647554		4.77749957		-0.00025959		 0.00023671		-0.00000000	
Si		0.46705498		6.81752347		1.59250002		 0.00025959		-0.00023671		0.00000000	
O		3.67865981		0.77947816		1.59250002		-0.00014355		 0.00035089		0.00000000	
O		1.13633994		10.85452134		4.77749957		 0.00014355		-0.00035089		0.00000000	
O		1.27115993		5.03752159		4.77749957		-0.00014355		-0.00035089		-0.00000000	
O		3.54383981		6.59647743		1.59250002		 0.00014355		 0.00035089		-0.00000000	
O		3.54383981		5.39817566		1.59250002		-0.00041863		-0.00030030		-0.00000000	
O		1.27115993		6.23582384		4.77749957		 0.00041863		 0.00030030		-0.00000000	
O		1.13633994		0.41882409		4.77749957		-0.00041863		 0.00030030		0.00000000	
O		3.67865981		11.21517541		1.59250002		 0.00041863		-0.00030030		0.00000000	
O		1.20374994		1.78000188		0.19110012		-0.00028172		-0.00022710		-0.00027298	
O		3.61124981		9.85399762		6.17889946		 0.00028172		 0.00022710		 0.00027298	
O		3.61124981		4.03699787		6.17889946		-0.00028172		 0.00022710		 0.00027298	
O		1.20374994		7.59700163		0.19110012		 0.00028172		-0.00022710		-0.00027298	
O		3.61124981		9.85399762		3.37609967		 0.00028172		 0.00022710		-0.00027298	
O		1.20374994		1.78000188		2.99389991		-0.00028172		-0.00022710		 0.00027298	
O		1.20374994		7.59700163		2.99389991		 0.00028172		-0.00022710		 0.00027298	
O		3.61124981		4.03699787		3.37609967		-0.00028172		 0.00022710		-0.00027298	
