# total energy = -24712.9359174 eV	

CRYSTAL	
PRIMVEC	
		9.53870002		0.00000000		0.00000000	
		0.00000000		8.66009990		-0.69280532	
		-1.68714803		-0.39873674		4.98419015	
PRIMCOORD
   40 1	
Mg		-0.42178796		7.73077870		0.61961106		-0.00059733		-0.00027564		-0.00007650	
Mg		-1.26536388		0.53058637		3.67177186		 0.00059733		 0.00027564		 0.00007650	
Mg		4.34756205		3.40072875		0.96601468		-0.00058830		-0.00026477		-0.00009636	
Mg		3.50398613		4.86063632		3.32536825		 0.00058830		 0.00026477		 0.00009636	
Mg		-0.42178796		2.37364064		1.04818199		 0.00026190		 0.00045585		 0.00017918	
Mg		-1.26536388		5.88772443		3.24320093		-0.00026190		-0.00045585		-0.00017918	
Mg		4.34756205		6.70369059		0.70177838		 0.00027089		 0.00042158		 0.00018530	
Mg		3.50398613		1.55767353		3.58960455		-0.00027089		-0.00042158		-0.00018530	
Si		2.37296148		0.69858673		1.16089127		 0.00046757		 0.00022395		 0.00041877	
Si		5.47858670		7.56277834		3.13049165		-0.00046757		-0.00022395		-0.00041877	
Si		6.32216262		0.69515756		1.20375533		-0.00045787		 0.00043159		-0.00051689	
Si		1.52938461		7.56620655		3.08762760		 0.00045787		-0.00043159		 0.00051689	
Si		7.14231149		5.02863668		0.81448670		 0.00032630		-0.00003627		 0.00029862	
Si		0.70923669		3.23272839		3.47689622		-0.00032630		 0.00003627		-0.00029862	
Si		1.55281261		5.02520656		0.85735076		-0.00081726		 0.00045031		-0.00080092	
Si		6.29873462		3.23615660		3.43403216		 0.00081726		-0.00045031		 0.00080092	
O		0.84504584		0.66203061		0.63045370		-0.00057762		-0.00073307		 0.00059155	
O		7.00650234		7.59933446		3.66092922		 0.00057762		 0.00073307		-0.00059155	
O		7.85007827		0.57271404		1.74691275		-0.00041861		-0.00005655		 0.00020346	
O		0.00146991		7.68865008		2.54447112		 0.00041861		 0.00005655		-0.00020346	
O		5.61439585		4.99208056		0.28405009		-0.00054262		-0.00072462		 0.00061058	
O		2.23715233		3.26928355		4.00733284		 0.00054262		 0.00072462		-0.00061058	
O		3.08072825		4.90276399		1.40050914		-0.00012873		-0.00003607		 0.00030618	
O		4.77081993		3.35860108		2.89087474		 0.00012873		 0.00003607		-0.00030618	
O		2.93192644		2.10494977		1.40593761		 0.00065069		-0.00024909		-0.00009916	
O		4.91962174		6.15641531		2.88544531		-0.00065069		 0.00024909		 0.00009916	
O		5.76319766		2.15909810		0.72908481		-0.00082088		 0.00092647		 0.00001468	
O		2.08834861		6.10226697		3.56229906		 0.00082088		-0.00092647		-0.00001468	
O		7.70127645		6.43499972		1.05953400		 0.00072465		-0.00000257		 0.00000276	
O		0.15027173		1.82636535		3.23184893		-0.00072465		 0.00000257		-0.00000276	
O		0.99384765		6.48914806		0.38268120		-0.00074647		 0.00080004		 0.00007505	
O		6.85769958		1.77221702		3.90870268		 0.00074647		-0.00080004		-0.00007505	
O		3.33603347		0.04600324		0.12408895		 0.00046912		 0.00003720		-0.00002540	
O		4.51551471		8.21536088		4.16729397		-0.00046912		-0.00003720		 0.00002540	
O		5.35909063		-0.13279015		2.35899969		-0.00007748		 0.00042456		 0.00010173	
O		2.49245659		8.39415427		1.93238324		 0.00007748		-0.00042456		-0.00010173	
O		8.10538348		4.37605319		-0.22231467		 0.00046370		-0.00006219		-0.00016634	
O		-0.25383530		3.88531092		4.51369759		-0.00046370		 0.00006219		 0.00016634	
O		0.58974062		4.19725980		2.01259607		-0.00005285		 0.00041547		 0.00010764	
O		7.26180660		4.06410432		2.27878685		 0.00005285		-0.00041547		-0.00010764	
