# total energy = -43992.1694427 eV

CRYSTAL
PRIMVEC
		9.81799975		0.00000000		0.00000000
		0.00000000		18.04700533		-2.88752282
		-1.33411890		-0.81656304		5.10350427
PRIMECORD
   82 1
Si		2.35753443		1.27391885		1.27012714		-0.00016933		-0.00035151		 0.00055640
Si		6.12634446		15.95652050		0.94585726		 0.00016933		 0.00035151		-0.00055640
Si		6.12634446		0.94141560		3.34827271		-0.00035584		 0.00021391		-0.00014580
Si		2.35753443		16.28902375		-1.13229028		 0.00035584		-0.00021391		 0.00014580
Si		7.26653430		10.29741955		-0.17363329		-0.00019507		-0.00034900		 0.00054350
Si		1.21734557		6.93302078		2.38961670		 0.00019507		 0.00034900		-0.00054350
Si		1.21734557		9.96491532		1.90451326		-0.00032787		 0.00022595		-0.00014175
Si		7.26653430		7.26552403		0.31147015		 0.00032787		-0.00022595		 0.00014175
Si		1.76155730		2.43116353		3.61018258		-0.00010144		 0.00037585		-0.00019883
Si		6.72232257		14.79927581		-1.39419916		 0.00010144		-0.00037585		 0.00019883
Si		6.72232257		2.92795923		0.50521070		 0.00038447		 0.00019791		 0.00034599
Si		1.76155730		14.30248110		1.71077173		-0.00038447		-0.00019791		-0.00034599
Si		6.67055717		11.45466423		2.16642313		-0.00011203		 0.00039592		-0.00021568
Si		1.81332172		5.77577609		0.04956126		 0.00011203		-0.00039592		 0.00021568
Si		1.81332172		11.95145993		-0.93854874		 0.00040537		 0.00017406		 0.00029198
Si		6.67055717		5.27897941		3.15453216		-0.00040537		-0.00017406		-0.00029198
O		2.58846753		1.65810503		2.66072997		 0.00067103		 0.00018077		 0.00002322
O		5.89541038		15.57233431		-0.44474655		-0.00067103		-0.00018077		-0.00002322
O		5.89541038		1.80247283		1.75843125		-0.00033731		 0.00028942		-0.00022965
O		2.58846753		15.42796652		0.45755315		 0.00033731		-0.00028942		 0.00022965
O		7.49746838		10.68160573		1.21696954		 0.00068925		 0.00017089		 0.00002530
O		0.98641051		6.54883459		0.99901289		-0.00068925		-0.00017089		-0.00002530
O		0.98641051		10.82597353		0.31467082		-0.00040142		 0.00031431		-0.00024575
O		7.49746838		6.40446680		1.90131260		 0.00040142		-0.00031431		 0.00024575
O		0.80703271		1.37476738		0.85964442		-0.00018128		-0.00047687		-0.00053410
O		7.67684716		15.85567295		1.35633997		 0.00018128		 0.00047687		 0.00053410
O		7.67684716		0.91275686		3.74720553		-0.00037508		-0.00000881		-0.00040737
O		0.80703271		16.31768249		-1.53122310		 0.00037508		 0.00000881		 0.00040737
O		5.71603258		10.39826808		-0.58411600		-0.00013878		-0.00051688		-0.00048579
O		2.76784729		6.83217323		2.80010040		 0.00013878		 0.00051688		 0.00048579
O		2.76784729		9.93625756		2.30344608		-0.00043215		-0.00006612		-0.00041665
O		5.71603258		7.29418277		-0.08746267		 0.00043215		 0.00006612		 0.00041665
O		2.52914030		3.82787905		3.33250402		 0.00004390		 0.00042803		-0.00008966
O		5.95473957		13.40256029		-1.11652060		-0.00004390		-0.00042803		 0.00008966
O		5.95473957		4.30687275		0.33878874		-0.00020081		 0.00012339		 0.00013292
O		2.52914030		12.92356659		1.87719370		 0.00020081		-0.00012339		-0.00013292
O		7.43813919		12.85137975		1.88874359		 0.00000742		 0.00040886		-0.00015189
O		1.04573970		4.37906057		0.32723884		-0.00000742		-0.00040886		 0.00015189
O		1.04573970		13.33037345		-1.10497071		-0.00020165		 0.00013249		 0.00010904
O		7.43813919		3.90006688		3.32095412		 0.00020165		-0.00013249		-0.00010904
O		2.91896987		-0.23851652		1.49073268		 0.00042999		-0.00051589		-0.00008084
O		5.56491000		-0.57804259		3.61276962		-0.00042999		 0.00051589		 0.00008084
O		7.82796876		8.78498320		0.04697324		 0.00040557		-0.00050904		-0.00016803
O		0.65591013		8.44545713		2.16901018		-0.00040557		 0.00050904		 0.00016803
O		0.19753030		2.49845709		3.20059330		-0.00021659		 0.00029585		 0.00009255
O		8.28634957		14.73198226		-0.98460890		 0.00021659		-0.00029585		-0.00009255
O		8.28634957		2.86427576		0.91422366		-0.00002792		 0.00059926		 0.00052810
O		0.19753030		14.36616359		1.30175975		 0.00002792		-0.00059926		-0.00052810
O		5.10653018		11.52195779		1.75683288		-0.00027623		 0.00025754		 0.00015276
O		3.37734970		5.70848254		0.45915054		 0.00027623		-0.00025754		-0.00015276
O		3.37734970		11.88777646		-0.52953676		 0.00001498		 0.00058520		 0.00053558
O		5.10653018		5.34266387		2.74552018		-0.00001498		-0.00058520		-0.00053558
O		0.12189047		-0.58400408		3.65002599		 0.00038979		 0.00022727		-0.00036698
O		8.36198940		-0.23255601		1.45347828		-0.00038979		-0.00022727		 0.00036698
O		5.03089034		8.43949564		2.20626556		 0.00051805		 0.00016083		-0.00040387
O		3.45298953		8.79094370		0.00971786		-0.00051805		-0.00016083		 0.00040387
O		3.26959224		2.34270925		0.11847380		-0.00038590		 0.00008209		 0.00018935
O		5.21428665		14.88773108		2.09750961		 0.00038590		-0.00008209		-0.00018935
O		5.21428665		1.68815400		4.20944187		-0.00014580		 0.00021971		-0.00013549
O		3.26959224		15.54228534		-1.99345943		 0.00014580		-0.00021971		 0.00013549
O		8.17859310		11.36620995		-1.32528564		-0.00040095		 0.00003793		 0.00013765
O		0.30528678		5.86423038		3.54127004		 0.00040095		-0.00003793		-0.00013765
O		0.30528678		10.71165470		2.76568144		-0.00014950		 0.00025576		-0.00012793
O		8.17859310		6.51878562		-0.54969901		 0.00014950		-0.00025576		 0.00012793
Ca		-0.66706043		4.60156688		1.75017627		-0.00059142		-0.00039005		 0.00025586
Ca		-0.66706043		12.62887246		0.46580714		 0.00059142		 0.00039005		-0.00025586
Ca		4.24193944		13.62506660		0.30641584		-0.00059944		-0.00036248		 0.00024388
Ca		4.24193944		3.60537274		1.90956659		 0.00059944		 0.00036248		-0.00024388
Mg		0.00000000		0.00000000		0.00000000		0.00000000		0.00000000		0.00000000
Mg		4.90899987		9.02349972		-1.44376043		0.00000000		0.00000000		0.00000000
Mg		0.00000000		3.18709944		-0.50993611		-0.00035793		-0.00047049		-0.00038649
Mg		0.00000000		14.85990098		-2.37758376		 0.00035793		 0.00047049		 0.00038649
Mg		4.90899987		12.21060014		-1.95369555		-0.00024016		-0.00050679		-0.00040611
Mg		4.90899987		5.83640028		-0.93382432		 0.00024016		 0.00050679		 0.00040611
Mg		-0.66706043		1.17624644		2.29822782		-0.00046501		 0.00015616		 0.00036096
Mg		-0.66706043		16.05419290		-0.08224440		 0.00046501		-0.00015616		-0.00036096
Mg		4.24193944		10.19974714		0.85446739		-0.00040324		 0.00025503		 0.00045146
Mg		4.24193944		7.03069417		1.36151602		 0.00040324		-0.00025503		-0.00045146
H		0.92650893		-0.62875158		3.92969760		 0.00004731		 0.00013091		 0.00057768
H		7.55736996		-0.18780852		1.17380569		-0.00004731		-0.00013091		-0.00057768
H		5.83550880		8.39474912		2.48593815		-0.00008663		 0.00016931		 0.00058180
H		2.64837009		8.83569120		-0.26995376		 0.00008663		-0.00016931		-0.00058180
