# total energy = -41275.2543525 eV

CRYSTAL
PRIMVEC
		5.79368922		0.00000000		0.00000000
		0.00000000		11.61601809		0.00000000
		0.00000000		0.00000000		8.43442375
PRIMECORD
   56 1
Mg		0.00000000		0.00000000		0.00000000		 0.00000001		-0.00000002		-0.00000002
Mg		0.00000000		5.80800848		0.00000000		 0.00000003		 0.00000002		-0.00000001
Mg		2.89684518		5.80800848		4.21721131		-0.00000003		 0.00000003		0.00000000
Mg		2.89684518		0.00000000		4.21721131		-0.00000001		-0.00000003		 0.00000001
Mg		0.00000000		2.90400452		8.18212299		 0.00000003		-0.00000002		-0.00008165
Mg		0.00000000		8.71201300		0.25230020		 0.00000001		 0.00000001		 0.00008168
Mg		2.89684518		8.71201300		3.96491111		-0.00000001		-0.00000001		-0.00008164
Mg		2.89684518		2.90400452		4.46951150		-0.00000002		-0.00000000		 0.00008168
Mg		1.44842231		1.48238417		2.10860565		0.00000000		 0.00009438		-0.00000004
Mg		4.34526749		10.13363278		6.32581696		 0.00000005		-0.00009439		 0.00000004
Mg		4.34526749		4.32562431		2.10860565		-0.00000001		-0.00009438		-0.00000003
Mg		1.44842231		7.29039265		6.32581696		-0.00000006		 0.00009438		 0.00000002
Mg		4.34526749		7.29039265		6.32581696		 0.00000005		 0.00009438		 0.00000001
Mg		1.44842231		4.32562431		2.10860565		 0.00000001		-0.00009438		-0.00000001
Mg		1.44842231		10.13363278		6.32581696		-0.00000006		-0.00009438		 0.00000003
Mg		4.34526749		1.48238417		2.10860565		-0.00000001		 0.00009438		-0.00000004
Si		0.00000000		1.39424401		5.19801006		-0.00000001		-0.00029082		-0.00027732
Si		0.00000000		10.22177351		3.23641313		-0.00000002		 0.00029070		 0.00027741
Si		0.00000000		4.41376447		5.19801006		 0.00000003		 0.00029082		-0.00027730
Si		0.00000000		7.20225249		3.23641313		-0.00000004		-0.00029068		 0.00027741
Si		2.89684461		7.20225249		0.98079818		 0.00000002		-0.00029070		-0.00027745
Si		2.89684461		4.41376447		7.45362443		-0.00000001		 0.00029083		 0.00027731
Si		2.89684461		10.22177351		0.98079818		 0.00000003		 0.00029070		-0.00027745
Si		2.89684461		1.39424401		7.45362443		0.00000000		-0.00029082		 0.00027732
O		0.00000000		2.90400452		1.81418420		 0.00000001		 0.00000002		-0.00002441
O		0.00000000		8.71201300		6.62023899		0.00000000		 0.00000001		 0.00002439
O		2.89684518		8.71201300		6.03139550		0.00000000		 0.00000002		-0.00002432
O		2.89684461		2.90400452		2.40302768		-0.00000001		-0.00000003		 0.00002440
O		0.00000000		2.90400395		6.03205536		-0.00000003		0.00000000		-0.00009091
O		0.00000000		8.71201300		2.40236782		 0.00000001		-0.00000001		 0.00009092
O		2.89684461		8.71201300		1.81484406		 0.00000001		-0.00000000		-0.00009091
O		2.89684461		2.90400452		6.61957912		 0.00000002		-0.00000001		 0.00009093
O		0.00000000		11.49149087		2.16318796		0.00000000		 0.00008501		 0.00013528
O		0.00000000		0.12452608		6.27123523		-0.00000002		-0.00008492		-0.00013531
O		0.00000000		5.93253513		2.16318796		-0.00000000		-0.00008500		 0.00013528
O		0.00000000		5.68348239		6.27123523		-0.00000002		 0.00008491		-0.00013534
O		2.89684461		5.68348239		6.38039926		 0.00000001		 0.00008489		 0.00013531
O		2.89684461		5.93253513		2.05402392		-0.00000000		-0.00008500		-0.00013526
O		2.89684461		0.12452608		6.38039926		 0.00000003		-0.00008490		 0.00013530
O		2.89684518		11.49149087		2.05402392		-0.00000002		 0.00008501		-0.00013528
O		1.51701901		1.42586217		8.36870811		 0.00012039		-0.00021317		 0.00026378
O		4.27667078		10.19015479		0.06571507		-0.00012042		 0.00021321		-0.00026376
O		4.27667078		4.38214631		8.36870811		-0.00012035		 0.00021315		 0.00026379
O		1.51701901		7.23387121		0.06571507		 0.00012040		-0.00021321		-0.00026378
O		4.27667078		7.23387121		0.06571507		-0.00012041		-0.00021322		-0.00026373
O		1.51701901		4.38214631		8.36870811		 0.00012036		 0.00021317		 0.00026380
O		1.51701901		10.19015479		0.06571507		 0.00012042		 0.00021321		-0.00026376
O		4.27667078		1.42586217		8.36870811		-0.00012037		-0.00021317		 0.00026377
O		4.41386419		7.23387121		4.15149680		 0.00012038		-0.00021323		 0.00026377
O		1.37982560		4.38214574		4.28292638		-0.00012034		 0.00021323		-0.00026384
O		1.37982560		10.19015479		4.15149680		-0.00012035		 0.00021325		 0.00026380
O		4.41386419		1.42586274		4.28292638		 0.00012030		-0.00021321		-0.00026382
O		1.37982560		1.42586274		4.28292638		-0.00012030		-0.00021322		-0.00026382
O		4.41386419		10.19015479		4.15149680		 0.00012034		 0.00021324		 0.00026381
O		4.41386419		4.38214574		4.28292638		 0.00012033		 0.00021322		-0.00026382
O		1.37982560		7.23387121		4.15149680		-0.00012038		-0.00021326		 0.00026379
