# total energy = -41270.4412192 eV	

CRYSTAL	
PRIMVEC	
		5.69829843		0.00000000		-0.45586273	
		0.00000000		11.43800150		0.00000000	
		-0.66053078		0.00000000		8.25660041	
PRIMCOORD
   56 1	
Mg		0.00000000		0.00000000		0.00000000		0.00000000		0.00000000		0.00000000	
Mg		0.00000000		5.71900018		0.00000000		0.00000000		0.00000000		0.00000000	
Mg		2.51888611		5.71900018		3.90036827		0.00000000		0.00000000		0.00000000	
Mg		2.51888611		0.00000000		3.90036827		0.00000000		0.00000000		0.00000000	
Mg		-0.64077796		2.85950009		8.00972798		-0.00016198		-0.00000000		-0.00022746	
Mg		-0.01974995		8.57850027		0.24687186		 0.00016198		0.00000000		 0.00022746	
Mg		2.53863607		8.57850027		3.65349584		-0.00016197		 0.00000001		-0.00022744	
Mg		2.49913616		2.85950009		4.14724128		 0.00016197		-0.00000001		 0.00022744	
Mg		1.25944277		1.45948902		1.95018414		-0.00000001		-0.00000761		0.00000000	
Mg		3.77832888		9.97851077		5.85055183		 0.00000001		 0.00000761		-0.00000000	
Mg		4.10859313		4.25951116		1.72225220		0.00000000		-0.00076632		 0.00000001	
Mg		0.92917910		7.17848920		6.07848377		-0.00000000		 0.00076632		-0.00000001	
Mg		3.77832888		7.17848920		5.85055183		-0.00000000		-0.00000760		0.00000000	
Mg		1.25944277		4.25951116		1.95018414		0.00000000		 0.00000760		-0.00000000	
Mg		0.92917910		9.97851077		6.07848377		-0.00000001		-0.00076631		-0.00000001	
Mg		4.10859313		1.45948902		1.72225220		 0.00000001		 0.00076631		 0.00000001	
Si		-0.40741420		1.37027209		5.09267125		-0.00031299		 0.00001915		-0.00034670	
Si		-0.25311372		10.06772827		3.16392916		 0.00031299		-0.00001915		 0.00034670	
Si		-0.40741420		4.34872694		5.09267125		-0.00031299		-0.00001914		-0.00034670	
Si		-0.25311372		7.08927227		3.16392916		 0.00031299		 0.00001914		 0.00034670	
Si		2.77199983		7.08927227		0.73643911		-0.00031298		 0.00001914		-0.00034669	
Si		2.26577182		4.34872694		7.06429686		 0.00031298		-0.00001914		 0.00034669	
Si		2.77199983		10.06772827		0.73643911		-0.00031299		-0.00001915		-0.00034668	
Si		2.26577182		1.37027209		7.06429686		 0.00031299		 0.00001915		 0.00034668	
O		-0.14306984		2.85950009		1.78838016		-0.00020721		0.00000000		 0.00058993	
O		-0.51745808		8.57850027		6.46822082		 0.00020721		-0.00000000		-0.00058993	
O		2.37581627		8.57850027		5.68874786		-0.00020721		0.00000000		 0.00058995	
O		2.66195595		2.85950009		2.11198925		 0.00020721		-0.00000000		-0.00058995	
O		-0.47320204		2.85950009		5.91502887		-0.00003458		 0.00000001		 0.00012879	
O		-0.18732588		8.57850027		2.34157212		 0.00003458		-0.00000001		-0.00012879	
O		2.70621199		8.57850027		1.55879673		-0.00003459		-0.00000001		 0.00012880	
O		2.33156023		2.85950009		6.24193981		 0.00003459		 0.00000001		-0.00012880	
O		-0.16896275		11.32361994		2.11203784		 0.00048957		 0.00034625		 0.00043030	
O		-0.49156517		0.11437984		6.14456200		-0.00048957		-0.00034625		-0.00043030	
O		-0.16896275		5.83338002		2.11203784		 0.00048956		-0.00034625		 0.00043030	
O		-0.49156517		5.60461976		6.14456200		-0.00048956		 0.00034625		-0.00043030	
O		2.34992279		5.60461976		6.01240726		 0.00048957		 0.00034625		 0.00043027	
O		2.68784886		5.83338002		1.78832986		-0.00048957		-0.00034625		-0.00043027	
O		2.34992279		0.11437984		6.01240726		 0.00048957		-0.00034624		 0.00043027	
O		2.68784886		11.32361994		1.78832986		-0.00048957		 0.00034624		-0.00043027	
O		0.83453091		1.40115494		8.07546779		-0.00045797		 0.00030368		 0.00004536	
O		4.20324074		10.03684485		-0.27473125		 0.00045797		-0.00030368		-0.00004536	
O		3.55262009		4.31784524		7.85801993		 0.00015984		-0.00037952		-0.00092800	
O		1.48515099		7.12015512		-0.05728396		-0.00015984		 0.00037952		 0.00092800	
O		4.20324074		7.12015512		-0.27473125		 0.00045797		 0.00030368		-0.00004536	
O		0.83453091		4.31784524		8.07546779		-0.00045797		-0.00030368		 0.00004536	
O		1.48515099		10.03684485		-0.05728396		-0.00015984		-0.00037954		 0.00092800	
O		3.55262009		1.40115494		7.85801993		 0.00015984		 0.00037954		-0.00092800	
O		4.01394494		7.12015512		3.71923508		-0.00045796		 0.00030369		 0.00004538	
O		1.02382728		4.31784524		4.08150089		 0.00045796		-0.00030369		-0.00004538	
O		1.03373398		10.03684485		3.95765223		 0.00015985		-0.00037955		-0.00092801	
O		4.00403710		1.40115494		3.84308374		-0.00015985		 0.00037955		 0.00092801	
O		1.02382728		1.40115494		4.08150089		 0.00045796		 0.00030369		-0.00004538	
O		4.01394494		10.03684485		3.71923508		-0.00045796		-0.00030369		 0.00004538	
O		4.00403710		4.31784524		3.84308374		-0.00015985		-0.00037954		 0.00092801	
O		1.03373398		7.12015512		3.95765223		 0.00015985		 0.00037954		-0.00092801	
