# total energy = -41270.4412192 eV	

CRYSTAL	
PRIMVEC	
		5.69829843		0.00000000		0.45586273	
		0.00000000		11.43800150		0.00000000	
		0.66053078		0.00000000		8.25660041	
PRIMCOORD
   56 1	
Mg		0.00000000		0.00000000		0.00000000		0.00000000		0.00000000		0.00000000	
Mg		0.00000000		5.71900018		0.00000000		0.00000000		0.00000000		0.00000000	
Mg		3.17941403		5.71900018		4.35623214		0.00000000		0.00000000		0.00000000	
Mg		3.17941403		0.00000000		4.35623214		0.00000000		0.00000000		0.00000000	
Mg		0.64077796		2.85950009		8.00972798		 0.00016198		-0.00000000		-0.00022746	
Mg		0.01974995		8.57850027		0.24687186		-0.00016198		0.00000000		 0.00022746	
Mg		3.15966408		8.57850027		4.10936028		 0.00016197		 0.00000001		-0.00022744	
Mg		3.19916398		2.85950009		4.60310515		-0.00016197		-0.00000001		 0.00022744	
Mg		1.58970701		1.45948902		2.17811607		-0.00000001		 0.00076634		0.00000000	
Mg		4.76912104		9.97851077		6.53434822		 0.00000001		-0.00076634		-0.00000000	
Mg		4.43885680		4.25951116		2.40604801		-0.00000000		 0.00000760		0.00000000	
Mg		1.91997126		7.17848920		6.30641628		0.00000000		-0.00000760		-0.00000000	
Mg		4.76912104		7.17848920		6.53434822		-0.00000000		 0.00076633		0.00000000	
Mg		1.58970701		4.25951116		2.17811607		0.00000000		-0.00076633		-0.00000000	
Mg		1.91997126		9.97851077		6.30641628		-0.00000001		 0.00000761		-0.00000000	
Mg		4.43885680		1.45948902		2.40604801		 0.00000001		-0.00000761		0.00000000	
Si		0.40741420		1.37027209		5.09267125		 0.00031298		 0.00001916		-0.00034671	
Si		0.25311372		10.06772827		3.16392916		-0.00031298		-0.00001916		 0.00034671	
Si		0.40741420		4.34872694		5.09267125		 0.00031298		-0.00001914		-0.00034671	
Si		0.25311372		7.08927227		3.16392916		-0.00031298		 0.00001914		 0.00034671	
Si		2.92629974		7.08927227		1.19230298		 0.00031299		 0.00001914		-0.00034671	
Si		3.43252775		4.34872694		7.52016130		-0.00031299		-0.00001914		 0.00034671	
Si		2.92629974		10.06772827		1.19230298		 0.00031298		-0.00001916		-0.00034670	
Si		3.43252775		1.37027209		7.52016130		-0.00031298		 0.00001916		 0.00034670	
O		0.14306984		2.85950009		1.78838016		 0.00020720		0.00000000		 0.00058993	
O		0.51745808		8.57850027		6.46822082		-0.00020720		-0.00000000		-0.00058993	
O		3.32248387		8.57850027		6.14461173		 0.00020721		 0.00000001		 0.00058994	
O		3.03634419		2.85950009		2.56785313		-0.00020721		-0.00000001		-0.00058994	
O		0.47320204		2.85950009		5.91502887		 0.00003458		0.00000000		 0.00012880	
O		0.18732588		8.57850027		2.34157212		-0.00003458		-0.00000000		-0.00012880	
O		2.99208815		8.57850027		2.01466117		 0.00003458		-0.00000001		 0.00012882	
O		3.36673991		2.85950009		6.69780426		-0.00003458		 0.00000001		-0.00012882	
O		0.16896275		11.32361994		2.11203784		-0.00048953		 0.00034625		 0.00043031	
O		0.49156517		0.11437984		6.14456200		 0.00048953		-0.00034625		-0.00043031	
O		0.16896275		5.83338002		2.11203784		-0.00048953		-0.00034625		 0.00043031	
O		0.49156517		5.60461976		6.14456200		 0.00048953		 0.00034625		-0.00043031	
O		3.34837678		5.60461976		6.46827113		-0.00048954		 0.00034626		 0.00043030	
O		3.01045128		5.83338002		2.24419373		 0.00048954		-0.00034626		-0.00043030	
O		3.34837678		0.11437984		6.46827113		-0.00048953		-0.00034624		 0.00043029	
O		3.01045128		11.32361994		2.24419373		 0.00048953		 0.00034624		-0.00043029	
O		2.14567890		1.40115494		8.31388380		-0.00015984		 0.00037954		-0.00092802	
O		4.21314801		10.03684485		0.39857992		 0.00015984		-0.00037954		 0.00092802	
O		4.86376923		4.31784524		8.53133110		 0.00045798		-0.00030369		 0.00004538	
O		1.49505883		7.12015512		0.18113319		-0.00045798		 0.00030369		-0.00004538	
O		4.21314801		7.12015512		0.39857992		 0.00015983		 0.00037954		 0.00092802	
O		2.14567890		4.31784524		8.31388380		-0.00015983		-0.00037954		-0.00092802	
O		1.49505883		10.03684485		0.18113319		-0.00045798		-0.00030369		-0.00004538	
O		4.86376923		1.40115494		8.53133110		 0.00045798		 0.00030369		 0.00004538	
O		4.66456502		7.12015512		4.41351610		-0.00015984		 0.00037954		-0.00092802	
O		1.69426190		4.31784524		4.29894819		 0.00015984		-0.00037954		 0.00092802	
O		1.68435520		10.03684485		4.17509895		 0.00045798		-0.00030371		 0.00004539	
O		4.67447286		1.40115494		4.53736477		-0.00045798		 0.00030371		-0.00004539	
O		1.69426190		1.40115494		4.29894819		 0.00015984		 0.00037954		 0.00092801	
O		4.66456502		10.03684485		4.41351610		-0.00015984		-0.00037954		-0.00092801	
O		4.67447286		4.31784524		4.53736477		-0.00045798		-0.00030369		-0.00004539	
O		1.68435520		7.12015512		4.17509895		 0.00045798		 0.00030369		 0.00004539	
