# total energy = -7175.28859562 eV

CRYSTAL
PRIMVEC
		3.11200009		0.00000000		0.00000000
		-1.55600005		2.69506988		0.00000000
		0.00000000		0.00000000		12.44880016
PRIMECORD
   12 1
O		0.00000000		1.79671419		5.14633416		0.00000000		-0.00000000		 0.00073198
O		1.55600005		0.89835694		7.30246631		0.00000000		0.00000000		-0.00073198
O		0.00000000		1.79671419		10.15573130		0.00000000		-0.00000000		 0.00019110
O		1.55600005		0.89835694		2.29306918		0.00000000		0.00000000		-0.00019110
O		0.00000000		0.00000000		0.00000000		0.00000000		0.00000000		0.00000000
H		0.00000000		1.79671419		4.18155220		0.00000000		-0.00000000		 0.00042741
H		1.55600005		0.89835694		8.26724827		0.00000000		0.00000000		-0.00042741
H		0.00000000		1.79671419		9.18970423		0.00000000		-0.00000000		-0.00007463
H		1.55600005		0.89835694		3.25909625		0.00000000		0.00000000		 0.00007463
Mg		0.00000000		0.00000000		6.22440008		0.00000000		0.00000000		0.00000000
Mg		1.55600005		0.89835694		11.24500135		0.00000000		0.00000000		 0.00022420
Mg		0.00000000		1.79671419		1.20379913		0.00000000		-0.00000000		-0.00022420
