# total energy = -7175.13112484 eV

CRYSTAL
PRIMVEC
		3.11200009		0.00000000		0.00000000
		-1.55600005		2.69506988		0.00000000
		0.00000000		0.00000000		13.40639994
PRIMECORD
   12 1
O		0.00000000		1.79671419		5.54220609		0.00000000		0.00000000		 0.00008306
O		1.55600005		0.89835694		7.86419415		0.00000000		-0.00000000		-0.00008306
O		0.00000000		1.79671419		10.93694135		0.00000000		-0.00000000		-0.00007536
O		1.55600005		0.89835694		2.46945921		0.00000000		0.00000000		 0.00007536
O		0.00000000		0.00000000		0.00000000		0.00000000		-0.00000000		0.00000000
H		0.00000000		1.79671419		4.50321009		0.00000000		-0.00000000		 0.00007647
H		1.55600005		0.89835694		8.90319016		0.00000000		0.00000000		-0.00007647
H		0.00000000		1.79671419		9.89660438		0.00000000		0.00000000		 0.00003298
H		1.55600005		0.89835694		3.50979524		0.00000000		-0.00000000		-0.00003298
Mg		0.00000000		0.00000000		6.70320028		0.00000000		-0.00000000		0.00000000
Mg		1.55600005		0.89835694		12.11000138		0.00000000		-0.00000000		-0.00002411
Mg		0.00000000		1.79671419		1.29639918		0.00000000		-0.00000000		 0.00002411
