# total energy = -7175.32193531 eV

CRYSTAL
PRIMVEC
		3.11200009		0.00000000		0.00000000
		-1.55600005		2.69506988		0.00000000
		0.00000000		0.00000000		12.12959920
PRIMECORD
   12 1
O		0.00000000		1.79671419		5.01437602		0.00000000		-0.00000000		 0.00012068
O		1.55600005		0.89835694		7.11522318		0.00000000		0.00000000		-0.00012068
O		0.00000000		1.79671419		9.89532815		0.00000000		-0.00000000		-0.00030329
O		1.55600005		0.89835694		2.23427198		0.00000000		0.00000000		 0.00030329
O		0.00000000		0.00000000		0.00000000		-0.00000000		0.00000000		0.00000000
H		0.00000000		1.79671419		4.07433322		0.00000000		-0.00000000		-0.00011464
H		1.55600005		0.89835694		8.05526723		0.00000000		0.00000000		 0.00011464
H		0.00000000		1.79671419		8.95407136		0.00000000		-0.00000000		 0.00050303
H		1.55600005		0.89835694		3.17552909		0.00000000		0.00000000		-0.00050303
Mg		0.00000000		0.00000000		6.06480022		0.00000000		-0.00000000		0.00000000
Mg		1.55600005		0.89835694		10.95666738		0.00000000		0.00000000		-0.00066316
Mg		0.00000000		1.79671419		1.17293213		0.00000000		0.00000000		 0.00066316
