# total energy = -7175.32251097 eV

CRYSTAL
PRIMVEC
		3.11200009		0.00000000		0.00000000
		-1.55600005		2.69506988		0.00000000
		0.00000000		0.00000000		11.81040135
PRIMECORD
   12 1
O		0.00000000		1.79671419		4.88241913		0.00000000		0.00000000		-0.00003445
O		1.55600005		0.89835694		6.92798129		0.00000000		-0.00000000		 0.00003445
O		0.00000000		1.79671419		9.63492439		0.00000000		0.00000000		-0.00031009
O		1.55600005		0.89835694		2.17547510		0.00000000		0.00000000		 0.00031009
O		0.00000000		0.00000000		0.00000000		0.00000000		-0.00000000		0.00000000
H		0.00000000		1.79671419		3.96711299		0.00000000		-0.00000000		-0.00022601
H		1.55600005		0.89835694		7.84328618		0.00000000		0.00000000		 0.00022601
H		0.00000000		1.79671419		8.71843725		0.00000000		0.00000000		 0.00049490
H		1.55600005		0.89835694		3.09196317		0.00000000		-0.00000000		-0.00049490
Mg		0.00000000		0.00000000		5.90520005		-0.00000000		0.00000000		0.00000000
Mg		1.55600005		0.89835694		10.66833435		0.00000000		-0.00000000		-0.00040426
Mg		0.00000000		1.79671419		1.14206607		0.00000000		0.00000000		 0.00040426
