# total energy = -7175.27335574 eV

CRYSTAL
PRIMVEC
		3.11200009		0.00000000		0.00000000
		-1.55600005		2.69506988		0.00000000
		0.00000000		0.00000000		11.49120039
PRIMECORD
   12 1
O		0.00000000		1.79671419		4.75046223		0.00000000		-0.00000000		-0.00004405
O		1.55600005		0.89835694		6.74073816		0.00000000		0.00000000		 0.00004405
O		0.00000000		1.79671419		9.37452124		0.00000000		0.00000000		-0.00026800
O		1.55600005		0.89835694		2.11667915		0.00000000		-0.00000000		 0.00026800
O		0.00000000		0.00000000		0.00000000		0.00000000		-0.00000000		0.00000000
H		0.00000000		1.79671419		3.85989401		0.00000000		-0.00000000		-0.00011607
H		1.55600005		0.89835694		7.63130638		0.00000000		0.00000000		 0.00011607
H		0.00000000		1.79671419		8.48280438		0.00000000		0.00000000		 0.00048338
H		1.55600005		0.89835694		3.00839601		0.00000000		0.00000000		-0.00048338
Mg		0.00000000		0.00000000		5.74560019		0.00000000		-0.00000000		0.00000000
Mg		1.55600005		0.89835694		10.38000132		0.00000000		0.00000000		-0.00030113
Mg		0.00000000		1.79671419		1.11119907		0.00000000		0.00000000		 0.00030113
