# total energy = -12334.6946541 eV	

CRYSTAL	
PRIMVEC	
		4.44490174		-0.71118626		0.00000000	
		-0.74636948		4.66480136		0.00000000	
		0.00000000		0.00000000		6.45440097	
PRIMCOORD
   20 1	
O		0.12026215		2.14208720		1.61360024		-0.00080929		 0.00002359		0.00000000	
O		3.57827012		1.81152925		4.84080027		 0.00080929		-0.00002359		0.00000000	
O		2.67932404		-0.31733003		4.84080027		-0.00004570		 0.00031635		0.00000000	
O		1.01920822		4.27094603		1.61360024		 0.00004570		-0.00031635		0.00000000	
O		0.69225412		0.77058900		3.62801818		 0.00006168		 0.00005519		-0.00039791	
O		3.00627814		3.18302700		2.82638188		-0.00006168		-0.00005519		 0.00039791	
O		2.83096119		0.93838720		2.82638188		 0.00066262		 0.00002576		 0.00032177	
O		0.86757107		3.01522925		3.62801818		-0.00066262		-0.00002576		-0.00032177	
O		3.00627814		3.18302700		0.40081815		-0.00006168		-0.00005519		-0.00039791	
O		0.69225412		0.77058900		6.05358192		 0.00006168		 0.00005519		 0.00039791	
O		0.86757107		3.01522925		6.05358192		-0.00066262		-0.00002576		 0.00032177	
O		2.83096119		0.93838720		0.40081815		 0.00066262		 0.00002576		-0.00032177	
Mg		1.86918498		2.34497904		1.61360024		-0.00020884		 0.00004355		0.00000000	
Mg		1.82934683		1.60863696		4.84080027		 0.00020884		-0.00004355		0.00000000	
Mg		-0.60449279		4.27074211		4.84080027		-0.00010272		-0.00005287		0.00000000	
Mg		4.30302506		-0.31712611		1.61360024		 0.00010272		 0.00005287		0.00000000	
Si		2.22244997		-0.35559223		3.22720003		0.00000000		0.00000000		0.00000000	
Si		-0.37318384		2.33240023		3.22720003		0.00000000		0.00000000		0.00000000	
Si		2.22244997		-0.35559223		0.00000000		0.00000000		0.00000000		0.00000000	
Si		-0.37318384		2.33240023		0.00000000		0.00000000		0.00000000		0.00000000	
