# total energy = -14250.1590344 eV	

CRYSTAL	
PRIMVEC	
		7.72999987		0.00000000		0.00000000	
		0.00000000		7.72999987		0.00000000	
		0.00000000		0.00000000		5.26049681	
PRIMCOORD
   24 1	
Ca		2.55089996		1.31409998		2.68285492		-0.00014920		 0.00014920		 0.00002082	
Ca		5.17909991		6.41589989		2.68285492		 0.00014920		-0.00014920		 0.00002082	
Ca		1.31409998		5.17909991		2.57764498		 0.00014920		 0.00014920		-0.00002082	
Ca		6.41589989		2.55089996		2.57764498		-0.00014920		-0.00014920		-0.00002082	
Si		1.08219998		2.78279995		4.99747506		 0.00002390		-0.00002390		 0.00000521	
Si		6.64779989		4.94719992		4.99747506		-0.00002390		 0.00002390		 0.00000521	
Si		2.78279995		6.64779989		0.26302484		-0.00002390		-0.00002390		-0.00000521	
Si		4.94719992		1.08219998		0.26302484		 0.00002390		 0.00002390		-0.00000521	
Mg		0.00000000		0.00000000		0.00000000		0.00000000		0.00000000		0.00000000	
Mg		3.86499994		3.86499994		0.00000000		0.00000000		0.00000000		0.00000000	
O		3.86499994		0.00000000		0.99949517		0.00000000		0.00000000		-0.00089748	
O		0.00000000		3.86499994		4.26100474		0.00000000		0.00000000		 0.00089748	
O		1.08219998		2.78279995		1.36772994		 0.00050516		-0.00050516		-0.00028416	
O		6.64779989		4.94719992		1.36772994		-0.00050516		 0.00050516		-0.00028416	
O		2.78279995		6.64779989		3.89276996		-0.00050516		-0.00050516		 0.00028416	
O		4.94719992		1.08219998		3.89276996		 0.00050516		 0.00050516		 0.00028416	
O		0.61839999		1.39139998		4.26100474		 0.00030872		-0.00004029		 0.00039080	
O		7.11159988		6.33859989		4.26100474		-0.00030872		 0.00004029		 0.00039080	
O		1.39139998		7.11159988		0.99949517		-0.00004029		-0.00030872		-0.00039080	
O		6.33859989		0.61839999		0.99949517		 0.00004029		 0.00030872		-0.00039080	
O		3.24659995		5.25639991		0.99949517		-0.00030872		-0.00004029		-0.00039080	
O		4.48339993		2.47359996		0.99949517		 0.00030872		 0.00004029		-0.00039080	
O		2.47359996		3.24659995		4.26100474		 0.00004029		-0.00030872		 0.00039080	
O		5.25639991		4.48339993		4.26100474		-0.00004029		 0.00030872		 0.00039080	
