# total energy = -14250.3290743 eV	

CRYSTAL	
PRIMVEC	
		7.72999987		0.00000000		0.00000000	
		0.00000000		7.72999987		0.00000000	
		0.00000000		0.00000000		5.13524762	
PRIMCOORD
   24 1	
Ca		2.55089996		1.31409998		2.61897807		 0.00014937		-0.00014937		-0.00058119	
Ca		5.17909991		6.41589989		2.61897807		-0.00014937		 0.00014937		-0.00058119	
Ca		1.31409998		5.17909991		2.51627265		-0.00014937		-0.00014937		 0.00058119	
Ca		6.41589989		2.55089996		2.51627265		 0.00014937		 0.00014937		 0.00058119	
Si		1.08219998		2.78279995		4.87848795		 0.00005726		-0.00005726		 0.00066293	
Si		6.64779989		4.94719992		4.87848795		-0.00005726		 0.00005726		 0.00066293	
Si		2.78279995		6.64779989		0.25676277		-0.00005726		-0.00005726		-0.00066293	
Si		4.94719992		1.08219998		0.25676277		 0.00005726		 0.00005726		-0.00066293	
Mg		0.00000000		0.00000000		0.00000000		0.00000000		0.00000000		0.00000000	
Mg		3.86499994		3.86499994		0.00000000		0.00000000		0.00000000		0.00000000	
O		3.86499994		0.00000000		0.97569836		0.00000000		0.00000000		 0.00022401	
O		0.00000000		3.86499994		4.15955313		0.00000000		0.00000000		-0.00022401	
O		1.08219998		2.78279995		1.33516500		 0.00006763		-0.00006763		 0.00057309	
O		6.64779989		4.94719992		1.33516500		-0.00006763		 0.00006763		 0.00057309	
O		2.78279995		6.64779989		3.80008494		-0.00006763		-0.00006763		-0.00057309	
O		4.94719992		1.08219998		3.80008494		 0.00006763		 0.00006763		-0.00057309	
O		0.61839999		1.39139998		4.15955313		 0.00002870		-0.00001619		-0.00036829	
O		7.11159988		6.33859989		4.15955313		-0.00002870		 0.00001619		-0.00036829	
O		1.39139998		7.11159988		0.97569836		-0.00001619		-0.00002870		 0.00036829	
O		6.33859989		0.61839999		0.97569836		 0.00001619		 0.00002870		 0.00036829	
O		3.24659995		5.25639991		0.97569836		-0.00002870		-0.00001619		 0.00036829	
O		4.48339993		2.47359996		0.97569836		 0.00002870		 0.00001619		 0.00036829	
O		2.47359996		3.24659995		4.15955313		 0.00001619		-0.00002870		-0.00036829	
O		5.25639991		4.48339993		4.15955313		-0.00001619		 0.00002870		-0.00036829	
