# total energy = -14249.7155656 eV	

CRYSTAL	
PRIMVEC	
		7.72999987		0.00000000		0.00000000	
		0.00000000		7.72999987		0.00000000	
		0.00000000		0.00000000		4.75950006	
PRIMCOORD
   24 1	
Ca		2.55089996		1.31409998		2.42734519		-0.00042596		 0.00042596		 0.00003557	
Ca		5.17909991		6.41589989		2.42734519		 0.00042596		-0.00042596		 0.00003557	
Ca		1.31409998		5.17909991		2.33215487		 0.00042596		 0.00042596		-0.00003557	
Ca		6.41589989		2.55089996		2.33215487		-0.00042596		-0.00042596		-0.00003557	
Si		1.08219998		2.78279995		4.52152506		 0.00006500		-0.00006500		-0.00019453	
Si		6.64779989		4.94719992		4.52152506		-0.00006500		 0.00006500		-0.00019453	
Si		2.78279995		6.64779989		0.23797500		-0.00006500		-0.00006500		 0.00019453	
Si		4.94719992		1.08219998		0.23797500		 0.00006500		 0.00006500		 0.00019453	
Mg		0.00000000		0.00000000		0.00000000		0.00000000		0.00000000		0.00000000	
Mg		3.86499994		3.86499994		0.00000000		0.00000000		0.00000000		0.00000000	
O		3.86499994		0.00000000		0.90430486		0.00000000		0.00000000		-0.00051715	
O		0.00000000		3.86499994		3.85519520		0.00000000		0.00000000		 0.00051715	
O		1.08219998		2.78279995		1.23747017		-0.00048644		 0.00048644		-0.00060661	
O		6.64779989		4.94719992		1.23747017		 0.00048644		-0.00048644		-0.00060661	
O		2.78279995		6.64779989		3.52202989		 0.00048644		 0.00048644		 0.00060661	
O		4.94719992		1.08219998		3.52202989		-0.00048644		-0.00048644		 0.00060661	
O		0.61839999		1.39139998		3.85519520		-0.00032803		 0.00001667		-0.00021698	
O		7.11159988		6.33859989		3.85519520		 0.00032803		-0.00001667		-0.00021698	
O		1.39139998		7.11159988		0.90430486		 0.00001667		 0.00032803		 0.00021698	
O		6.33859989		0.61839999		0.90430486		-0.00001667		-0.00032803		 0.00021698	
O		3.24659995		5.25639991		0.90430486		 0.00032803		 0.00001667		 0.00021698	
O		4.48339993		2.47359996		0.90430486		-0.00032803		-0.00001667		 0.00021698	
O		2.47359996		3.24659995		3.85519520		-0.00001667		 0.00032803		-0.00021698	
O		5.25639991		4.48339993		3.85519520		 0.00001667		-0.00032803		-0.00021698	
