# total energy = -24716.8579796 eV

CRYSTAL
PRIMVEC
		9.85360173		0.00000000		0.00000000
		0.00000000		8.82246173		0.00000000
		-1.66811624		0.00000000		4.91197120
PRIMECORD
   40 1
Mg		2.08873004		5.76459547		1.07424754		 0.00070031		-0.00007977		 0.00010455
Mg		6.09675743		3.05786527		3.83772168		-0.00070031		 0.00007977		-0.00010455
Mg		6.93081358		1.35336461		1.38173707		-0.00070031		-0.00007977		-0.00010455
Mg		1.25467389		7.46909515		3.53023314		 0.00070031		 0.00007977		 0.00010455
Mg		2.16845454		0.10675195		1.06000318		 0.00074165		 0.00019482		 0.00079633
Mg		6.01703292		8.71570879		3.85196703		-0.00074165		-0.00019482		-0.00079633
Mg		6.85108907		4.51798183		1.39598242		-0.00074165		 0.00019482		-0.00079633
Mg		1.33439938		4.30447793		3.51598779		 0.00074165		-0.00019482		 0.00079633
Si		-0.04169453		2.99610684		1.46327562		 0.00030061		-0.00009415		-0.00002801
Si		8.22718298		5.82635292		3.44869360		-0.00030061		 0.00009415		 0.00002801
Si		9.06124012		7.40733671		0.99270899		-0.00030061		-0.00009415		 0.00002801
Si		-0.87575068		1.41512304		3.91926122		 0.00030061		 0.00009415		-0.00002801
Si		5.06974411		7.39057475		1.11108819		-0.00044253		 0.00003822		 0.00060323
Si		3.11574434		1.43188500		3.80088202		 0.00044253		-0.00003822		-0.00060323
Si		3.94980049		2.97934487		1.34489741		 0.00044253		 0.00003822		-0.00060323
Si		4.23568698		5.84311488		3.56707182		-0.00044253		-0.00003822		 0.00060323
O		8.25032614		3.00757643		0.92295928		 0.00069361		 0.00031251		 0.00005547
O		-0.06483768		5.81488333		3.98901093		-0.00069361		-0.00031251		-0.00005547
O		0.76921945		7.41880729		1.53302631		-0.00069361		 0.00031251		-0.00005547
O		7.41626999		1.40365345		3.37894390		 0.00069361		-0.00031251		 0.00005547
O		0.69755519		4.41652323		1.57576040		-0.00018978		-0.00061399		-0.00022646
O		7.48793326		4.40593652		3.33620981		 0.00018978		 0.00061399		 0.00022646
O		8.32198941		0.00529335		0.88022520		 0.00018978		-0.00061399		 0.00022646
O		-0.13650194		8.81716640		4.03174501		-0.00018978		 0.00061399		-0.00022646
O		0.00749662		2.47911102		3.00710838		-0.00032819		 0.00040834		 0.00042367
O		8.17799085		6.34334874		1.90486183		 0.00032819		-0.00040834		-0.00042367
O		7.34393470		6.89034188		4.36084644		 0.00032819		 0.00040834		-0.00042367
O		0.84155375		1.93211886		0.55112278		-0.00032819		-0.00040834		 0.00042367
O		3.47845936		7.39233855		0.62922342		 0.00032375		-0.00049294		 0.00055919
O		4.70702909		1.43012121		4.28274679		-0.00032375		 0.00049294		-0.00055919
O		5.54108622		2.98110867		1.82676218		-0.00032375		-0.00049294		-0.00055919
O		2.64440321		5.84135109		3.08520803		 0.00032375		 0.00049294		 0.00055919
O		5.61281847		8.61425019		1.95791066		 0.00077398		 0.00049326		 0.00023166
O		2.57266899		0.20820956		2.95405856		-0.00077398		-0.00049326		-0.00023166
O		3.40672613		4.20302032		0.49807395		-0.00077398		 0.00049326		-0.00023166
O		4.77876331		4.61943944		4.41389626		 0.00077398		-0.00049326		 0.00023166
O		5.20573071		6.13160962		2.20203562		-0.00052710		 0.00007416		 0.00055731
O		2.97975675		2.69085014		2.70993361		 0.00052710		-0.00007416		-0.00055731
O		3.81381389		1.72037974		0.25394899		 0.00052710		 0.00007416		-0.00055731
O		4.37167358		7.10208100		4.65802122		-0.00052710		-0.00007416		 0.00055731
