# total energy = -24716.5552058 eV

CRYSTAL
PRIMVEC
		10.09393285		0.00000000		0.00000000
		0.00000000		8.82246069		0.00000000
		-1.70880189		0.00000000		4.91197017
PRIMECORD
   40 1
Mg		2.13967454		5.76459559		1.07424781		-0.00050035		-0.00015540		 0.00000641
Mg		6.24545844		3.05786510		3.83772235		 0.00050035		 0.00015540		-0.00000641
Mg		7.09985938		1.35336524		1.38173727		 0.00050035		-0.00015540		-0.00000641
Mg		1.28527561		7.46909444		3.53023290		-0.00050035		 0.00015540		 0.00000641
Mg		2.22134354		0.10675242		1.06000325		-0.00090078		-0.00081762		-0.00015979
Mg		6.16378944		8.71570928		3.85196691		 0.00090078		 0.00081762		 0.00015979
Mg		7.01818937		4.51798176		1.39598183		 0.00090078		-0.00081762		 0.00015979
Mg		1.36694461		4.30447792		3.51598834		-0.00090078		 0.00081762		-0.00015979
Si		-0.04271248		2.99610739		1.46327606		 0.00036430		-0.00022345		 0.00016593
Si		8.42784545		5.82635330		3.44869411		-0.00036430		 0.00022345		-0.00016593
Si		9.28224539		7.40733673		0.99270902		-0.00036430		-0.00022345		-0.00016593
Si		-0.89711140		1.41512295		3.91926114		 0.00036430		 0.00022345		 0.00016593
Si		5.19339608		7.39057474		1.11108764		-0.00022770		-0.00007348		 0.00038582
Si		3.19173791		1.43188494		3.80088152		 0.00022770		 0.00007348		-0.00038582
Si		4.04613784		2.97934541		1.34489744		 0.00022770		-0.00007348		-0.00038582
Si		4.33899614		5.84311528		3.56707171		-0.00022770		 0.00007348		 0.00038582
O		8.45155408		3.00757713		0.92295894		 0.00078211		-0.00018276		 0.00039626
O		-0.06642010		5.81488255		3.98901123		-0.00078211		 0.00018276		-0.00039626
O		0.78797984		7.41880647		1.53302615		-0.00078211		-0.00018276		-0.00039626
O		7.59715415		1.40365322		3.37894402		 0.00078211		 0.00018276		 0.00039626
O		0.71456768		4.41652260		1.57575982		 0.00047290		-0.00004085		-0.00002116
O		7.67056631		4.40593709		3.33621035		-0.00047290		 0.00004085		 0.00002116
O		8.52496524		0.00529326		0.88022526		-0.00047290		-0.00004085		 0.00002116
O		-0.13983125		8.81716642		4.03174490		 0.00047290		 0.00004085		-0.00002116
O		0.00768047		2.47911129		3.00710776		-0.00006639		-0.00056930		-0.00029173
O		8.37745452		6.34334940		1.90486241		 0.00006639		 0.00056930		 0.00029173
O		7.52305459		6.89034164		4.36084648		 0.00006639		-0.00056930		 0.00029173
O		0.86207940		1.93211905		0.55112268		-0.00006639		 0.00056930		-0.00029173
O		3.56329961		7.39233916		0.62922347		-0.00003354		 0.00048231		-0.00083319
O		4.82183437		1.43012052		4.28274669		 0.00003354		-0.00048231		 0.00083319
O		5.67623431		2.98110882		1.82676161		 0.00003354		 0.00048231		 0.00083319
O		2.70889967		5.84135087		3.08520755		-0.00003354		-0.00048231		-0.00083319
O		5.74971713		8.61425011		1.95791107		-0.00059675		 0.00046143		-0.00010460
O		2.63541685		0.20820957		2.95405910		 0.00059675		-0.00046143		 0.00010460
O		3.48981578		4.20301977		0.49807401		 0.00059675		 0.00046143		 0.00010460
O		4.89531821		4.61943992		4.41389615		-0.00059675		-0.00046143		-0.00010460
O		5.33269942		6.13160998		2.20203586		 0.00042160		-0.00007583		 0.00025505
O		3.05243356		2.69084970		2.70993430		-0.00042160		 0.00007583		-0.00025505
O		3.90683349		1.72037963		0.25394922		-0.00042160		-0.00007583		-0.00025505
O		4.47829948		7.10208106		4.65802095		 0.00042160		 0.00007583		 0.00025505
