# total energy = -10313.5318596 eV

CRYSTAL
PRIMVEC
		3.51000009		0.00000000		0.00000000
		0.00000000		3.51000009		0.00000000
		0.00000000		0.00000000		9.92750173
PRIMECORD
   14 1
Si		0.00000000		0.00000000		0.00000000		0.00000000		0.00000000		0.00000000
Si		1.75500004		1.75500004		4.96375016		0.00000000		0.00000000		0.00000000
Mg		0.00000000		0.00000000		3.71288511		0.00000000		0.00000000		-0.00000979
Mg		0.00000000		0.00000000		6.21461521		0.00000000		0.00000000		 0.00000979
Mg		1.75500004		1.75500004		8.67663528		0.00000000		0.00000000		-0.00003841
Mg		1.75500004		1.75500004		1.25086505		0.00000000		0.00000000		 0.00003841
O		0.00000000		1.75500004		0.00000000		0.00000000		0.00000000		0.00000000
O		1.75500004		0.00000000		0.00000000		0.00000000		0.00000000		0.00000000
O		1.75500004		0.00000000		4.96375016		0.00000000		0.00000000		0.00000000
O		0.00000000		1.75500004		4.96375016		0.00000000		0.00000000		0.00000000
O		0.00000000		0.00000000		1.63505913		0.00000000		0.00000000		 0.00004558
O		0.00000000		0.00000000		8.29244014		0.00000000		0.00000000		-0.00004558
O		1.75500004		1.75500004		6.59880929		0.00000000		0.00000000		 0.00001665
O		1.75500004		1.75500004		3.32869103		0.00000000		0.00000000		-0.00001665
