# total energy = -10313.8261262 eV

CRYSTAL
PRIMVEC
		3.51000009		0.00000000		0.00000000
		0.00000000		3.51000009		0.00000000
		0.00000000		0.00000000		11.23375177
PRIMECORD
   14 1
Si		0.00000000		0.00000000		0.00000000		0.00000000		0.00000000		0.00000000
Si		1.75500004		1.75500004		5.61687518		0.00000000		0.00000000		0.00000000
Mg		0.00000000		0.00000000		4.20142307		0.00000000		0.00000000		 0.00002540
Mg		0.00000000		0.00000000		7.03232730		0.00000000		0.00000000		-0.00002540
Mg		1.75500004		1.75500004		9.81829720		0.00000000		0.00000000		-0.00007014
Mg		1.75500004		1.75500004		1.41545211		0.00000000		0.00000000		 0.00007014
O		0.00000000		1.75500004		0.00000000		0.00000000		0.00000000		0.00000000
O		1.75500004		0.00000000		0.00000000		0.00000000		0.00000000		0.00000000
O		1.75500004		0.00000000		5.61687518		0.00000000		0.00000000		0.00000000
O		0.00000000		1.75500004		5.61687518		0.00000000		0.00000000		0.00000000
O		0.00000000		0.00000000		1.85019897		0.00000000		0.00000000		 0.00005218
O		0.00000000		0.00000000		9.38355140		0.00000000		0.00000000		-0.00005218
O		1.75500004		1.75500004		7.46707415		0.00000000		0.00000000		-0.00002196
O		1.75500004		1.75500004		3.76667622		0.00000000		0.00000000		 0.00002196
