# total energy = -9215.11916867 eV	

CRYSTAL	
PRIMVEC	
		5.32599971		0.00000000		0.00000000	
		-2.66299986		4.61244890		-0.55349387	
		0.00000000		-0.87456111		7.28800214	
PRIMCOORD
   18 1	
Mg		1.76716670		-0.39792514		3.31603985		-0.00020553		 0.00034454		 0.00077639	
Mg		-0.88358282		1.13248702		3.13239086		-0.00006215		 0.00020340		 0.00074840	
Mg		1.77941704		2.68411478		2.94619498		-0.00035272		-0.00030952		 0.00018873	
Si		0.00000000		3.01024971		0.17031588		-0.00004992		-0.00008565		 0.00009392	
Si		2.66299986		1.47276568		0.35481384		-0.00003557		-0.00018360		-0.00002686	
H		3.10505783		-0.64017771		5.33481584		-0.00000617		-0.00013398		-0.00068766	
H		-1.55252892		2.04888067		5.01212896		 0.00011547		 0.00006053		-0.00075272	
H		1.11047094		1.28321388		5.10400885		-0.00000123		-0.00015927		-0.00049453	
H		0.00000000		-0.17228810		1.43573613		 0.00008251		-0.00074978		-0.00046875	
O		0.00000000		2.82038261		1.75254098		 0.00071269		 0.00008594		-0.00014291	
O		2.66299986		1.28289912		1.93703893		 0.00007054		 0.00004489		-0.00030468	
O		2.70028185		-0.86756381		7.22969575		-0.00069773		-0.00010719		 0.00029515	
O		-1.35014093		1.47095005		6.94907362		-0.00012882		 0.00016186		 0.00032701	
O		1.31285893		1.40637496		6.95682242		 0.00032209		 0.00059098		 0.00036538	
O		3.53646381		-0.51424072		4.28534357		-0.00040209		 0.00022941		 0.00072671	
O		-1.76823190		2.54842588		3.91782403		 0.00005879		-0.00003222		 0.00035606	
O		0.89476795		1.03554318		4.09936978		-0.00025769		-0.00061049		-0.00032710	
O		0.00000000		-0.26586592		2.21555197		 0.00083753		 0.00065013		-0.00067253	
