# total energy = -9215.09297021 eV	

CRYSTAL	
PRIMVEC	
		5.32599971		0.00000000		0.00000000	
		-2.66299986		4.61244890		-0.73799182	
		0.00000000		-1.16607970		7.28800214	
PRIMCOORD
   18 1	
Mg		1.76716670		-0.53056597		3.31603985		-0.00074598		-0.00056677		-0.00017778	
Mg		-0.88358282		0.99984513		3.07117382		-0.00011571		-0.00062786		-0.00029920	
Mg		1.77941704		2.55147395		2.82291406		-0.00043552		 0.00058488		-0.00081246	
Si		0.00000000		2.98867781		0.04731725		 0.00019922		 0.00032065		-0.00017633	
Si		2.66299986		1.45119378		0.29331505		-0.00010097		 0.00047579		 0.00028250	
H		3.10505783		-0.85357081		5.33481584		 0.00079840		-0.00023982		-0.00020276	
H		-1.55252892		1.83548916		4.90456667		 0.00022454		-0.00064944		-0.00009190	
H		1.11047094		1.06982184		5.02707265		-0.00024997		 0.00078352		 0.00003992	
H		0.00000000		-0.22971782		1.43573613		 0.00043763		 0.00022530		 0.00011350	
O		0.00000000		2.73552186		1.62954181		-0.00019087		-0.00058619		-0.00025247	
O		2.66299986		1.19803783		1.87553908		 0.00008805		-0.00030121		 0.00039179	
O		2.70028185		-1.15675068		7.22969575		 0.00016286		 0.00045408		 0.00006678	
O		-1.35014093		1.18176211		6.85553362		 0.00029219		-0.00011829		 0.00085486	
O		1.31285893		1.11718703		6.86586553		-0.00025919		-0.00046477		-0.00020553	
O		3.53646381		-0.68565482		4.28534357		-0.00008435		-0.00003760		 0.00037960	
O		-1.76823190		2.37701284		3.79531698		-0.00054744		 0.00036205		 0.00002427	
O		0.89476795		0.86412907		4.03737887		 0.00021842		 0.00056933		 0.00054512	
O		0.00000000		-0.35448789		2.21555197		 0.00030870		-0.00018364		-0.00047994	
