# total energy = -9215.09297021 eV	

CRYSTAL	
PRIMVEC	
		5.32599971		0.00000000		0.00000000	
		-2.66299986		4.61244890		0.73799182	
		0.00000000		1.16607970		7.28800214	
PRIMCOORD
   18 1	
Mg		1.76716670		0.53056597		3.31603985		-0.00074597		 0.00056679		-0.00017778	
Mg		-0.88358282		2.06097814		3.56090589		-0.00043553		-0.00058487		-0.00081246	
Mg		1.77941704		3.61260696		3.80916671		-0.00011572		 0.00062786		-0.00029918	
Si		0.00000000		3.16125778		1.03130688		-0.00010097		-0.00047580		 0.00028255	
Si		2.66299986		1.62377375		0.78530907		 0.00019922		-0.00032063		-0.00017638	
H		3.10505783		0.85357081		5.33481584		 0.00079841		 0.00023979		-0.00020271	
H		-1.55252892		3.54262972		5.76506554		-0.00024998		-0.00078352		 0.00003994	
H		1.11047094		2.77696293		5.64255849		 0.00022454		 0.00064943		-0.00009186	
H		0.00000000		0.22971782		1.43573613		 0.00043763		-0.00022529		 0.00011350	
O		0.00000000		3.41441373		2.61353197		 0.00008804		 0.00030122		 0.00039176	
O		2.66299986		1.87692970		2.36753363		-0.00019087		 0.00058619		-0.00025242	
O		2.70028185		1.15675068		7.22969575		 0.00016287		-0.00045406		 0.00006679	
O		-1.35014093		3.49526400		7.60385735		-0.00025921		 0.00046475		-0.00020553	
O		1.31285893		3.43068999		7.59352545		 0.00029222		 0.00011827		 0.00085486	
O		3.53646381		0.68565482		4.28534357		-0.00008434		 0.00003761		 0.00037953	
O		-1.76823190		3.74832302		4.77537070		 0.00021841		-0.00056933		 0.00054508	
O		0.89476795		2.23543872		4.53330880		-0.00054745		-0.00036204		 0.00002423	
O		0.00000000		0.35448789		2.21555197		 0.00030870		 0.00018363		-0.00047993	
