# total energy = -20632.948803 eV

CRYSTAL
PRIMVEC
		10.10999973		0.00000000		0.00000000
		0.00000000		5.76999926		0.00000000
		0.00000000		0.00000000		5.17000111
PRIMECORD
   28 1
Si		8.51261977		2.88499963		4.52478396		-0.00008454		0.00000000		-0.00013607
Si		1.59737996		2.88499963		0.64521614		 0.00008454		0.00000000		 0.00013607
Si		3.26148591		0.00000000		4.56200797		-0.00013948		0.00000000		-0.00041279
Si		6.84851382		0.00000000		0.60799213		 0.00013948		0.00000000		 0.00041279
Mg		5.05499986		2.88499963		0.00000000		0.00000000		0.00000000		0.00000000
Mg		0.00000000		0.00000000		2.58499954		0.00000000		0.00000000		0.00000000
Mg		0.00000000		2.88499963		2.58499954		0.00000000		0.00000000		0.00000000
Mg		5.05499986		0.00000000		2.58499954		0.00000000		0.00000000		0.00000000
Mg		2.50930193		1.45807933		2.57983030		-0.00063812		-0.00012350		-0.00034372
Mg		7.60069780		4.31192095		2.59016980		 0.00063812		 0.00012350		 0.00034372
Mg		7.60069780		1.45807933		2.59016980		 0.00063812		-0.00012350		 0.00034372
Mg		2.50930193		4.31192095		2.57983030		-0.00063812		 0.00012350		-0.00034372
O		3.18869391		2.88499963		1.08828485		-0.00011252		0.00000000		 0.00044600
O		6.92130581		2.88499963		4.08171525		 0.00011252		0.00000000		-0.00044600
O		1.66006196		2.88499963		4.01036898		-0.00015868		0.00000000		 0.00035970
O		8.44993777		2.88499963		1.15963112		 0.00015868		0.00000000		-0.00035970
O		8.39635477		0.00000000		1.20667801		 0.00075656		0.00000000		-0.00038339
O		1.71364495		0.00000000		3.96332209		-0.00075656		0.00000000		 0.00038339
O		3.36662991		0.00000000		1.19375338		-0.00027109		-0.00000000		-0.00061442
O		6.74336982		0.00000000		3.97624672		 0.00027109		-0.00000000		 0.00061442
O		0.86036098		1.50077689		1.18237862		 0.00013899		 0.00024158		 0.00086158
O		9.24963875		4.26922339		3.98762047		-0.00013899		-0.00024158		-0.00086158
O		9.24963875		1.50077689		3.98762047		-0.00013899		 0.00024158		-0.00086158
O		0.86036098		4.26922339		1.18237862		 0.00013899		-0.00024158		 0.00086158
O		5.99725184		1.31613695		1.14256949		 0.00005372		 0.00016990		-0.00006832
O		4.11274789		4.45386332		4.02742960		-0.00005372		-0.00016990		 0.00006832
O		4.11274789		1.31613695		4.02742960		-0.00005372		 0.00016990		 0.00006832
O		5.99725184		4.45386332		1.14256949		 0.00005372		-0.00016990		-0.00006832
