# total energy = -20633.3416195 eV

CRYSTAL
PRIMVEC
		10.10999973		0.00000000		0.00000000
		0.00000000		5.76999926		0.00000000
		0.00000000		0.00000000		4.58249892
PRIMECORD
   28 1
Si		8.51261977		2.88499963		4.01060353		 0.00017717		0.00000000		-0.00040975
Si		1.59737996		2.88499963		0.57189640		-0.00017717		0.00000000		 0.00040975
Si		3.26148591		0.00000000		4.04359751		-0.00028952		0.00000000		 0.00048412
Si		6.84851382		0.00000000		0.53890241		 0.00028952		0.00000000		-0.00048412
Mg		5.05499986		2.88499963		0.00000000		0.00000000		0.00000000		0.00000000
Mg		0.00000000		0.00000000		2.29124946		0.00000000		0.00000000		0.00000000
Mg		0.00000000		2.88499963		2.29124946		0.00000000		0.00000000		0.00000000
Mg		5.05499986		0.00000000		2.29124946		0.00000000		0.00000000		0.00000000
Mg		2.50930193		1.45807933		2.28666660		 0.00004561		 0.00006390		 0.00047718
Mg		7.60069780		4.31192095		2.29583232		-0.00004561		-0.00006390		-0.00047718
Mg		7.60069780		1.45807933		2.29583232		-0.00004561		 0.00006390		-0.00047718
Mg		2.50930193		4.31192095		2.28666660		 0.00004561		-0.00006390		 0.00047718
O		3.18869391		2.88499963		0.96461631		 0.00030415		0.00000000		 0.00038909
O		6.92130581		2.88499963		3.61788362		-0.00030415		0.00000000		-0.00038909
O		1.66006196		2.88499963		3.55464456		-0.00035161		-0.00000000		 0.00000542
O		8.44993777		2.88499963		1.02785536		 0.00035161		-0.00000000		-0.00000542
O		8.39635477		0.00000000		1.06955507		 0.00001799		0.00000000		-0.00030838
O		1.71364495		0.00000000		3.51294385		-0.00001799		-0.00000000		 0.00030838
O		3.36662991		0.00000000		1.05809943		-0.00026576		-0.00000000		 0.00078676
O		6.74336982		0.00000000		3.52440050		 0.00026576		0.00000000		-0.00078676
O		0.86036098		1.50077689		1.04801774		-0.00013739		-0.00022330		 0.00008867
O		9.24963875		4.26922339		3.53448219		 0.00013739		 0.00022330		-0.00008867
O		9.24963875		1.50077689		3.53448219		 0.00013739		-0.00022330		-0.00008867
O		0.86036098		4.26922339		1.04801774		-0.00013739		 0.00022330		 0.00008867
O		5.99725184		1.31613695		1.01273182		 0.00009383		 0.00004178		-0.00013778
O		4.11274789		4.45386332		3.56976710		-0.00009383		-0.00004178		 0.00013778
O		4.11274789		1.31613695		3.56976710		-0.00009383		 0.00004178		 0.00013778
O		5.99725184		4.45386332		1.01273182		 0.00009383		-0.00004178		-0.00013778
