# total energy = -20628.4233476 eV

CRYSTAL
PRIMVEC
		10.10999973		0.00000000		0.00000000
		0.00000000		5.76999926		0.00000000
		0.00000000		0.00000000		4.23000367
PRIMECORD
   28 1
Si		8.51261977		2.88499963		3.70209588		-0.00045734		0.00000000		-0.00010574
Si		1.59737996		2.88499963		0.52790375		 0.00045734		0.00000000		 0.00010574
Si		3.26148591		0.00000000		3.73255225		 0.00039208		0.00000000		 0.00023993
Si		6.84851382		0.00000000		0.49744838		-0.00039208		0.00000000		-0.00023993
Mg		5.05499986		2.88499963		0.00000000		0.00000000		0.00000000		0.00000000
Mg		0.00000000		0.00000000		2.11499981		0.00000000		0.00000000		0.00000000
Mg		0.00000000		2.88499963		2.11499981		0.00000000		0.00000000		0.00000000
Mg		5.05499986		0.00000000		2.11499981		0.00000000		0.00000000		0.00000000
Mg		2.50930193		1.45807933		2.11076979		-0.00021357		-0.00008022		 0.00010587
Mg		7.60069780		4.31192095		2.11922984		 0.00021357		 0.00008022		-0.00010587
Mg		7.60069780		1.45807933		2.11922984		 0.00021357		-0.00008022		-0.00010587
Mg		2.50930193		4.31192095		2.11076979		-0.00021357		 0.00008022		 0.00010587
O		3.18869391		2.88499963		0.89041497		 0.00031089		0.00000000		 0.00024395
O		6.92130581		2.88499963		3.33958465		-0.00031089		0.00000000		-0.00024395
O		1.66006196		2.88499963		3.28121052		-0.00018852		0.00000000		 0.00000692
O		8.44993777		2.88499963		0.94878910		 0.00018852		0.00000000		-0.00000692
O		8.39635477		0.00000000		0.98728191		 0.00009766		-0.00000000		-0.00018494
O		1.71364495		0.00000000		3.24271771		-0.00009766		-0.00000000		 0.00018494
O		3.36662991		0.00000000		0.97670685		-0.00018307		0.00000000		 0.00022817
O		6.74336982		0.00000000		3.25329277		 0.00018307		0.00000000		-0.00022817
O		0.86036098		1.50077689		0.96740060		-0.00011534		-0.00014124		-0.00006751
O		9.24963875		4.26922339		3.26259902		 0.00011534		 0.00014124		 0.00006751
O		9.24963875		1.50077689		3.26259902		 0.00011534		-0.00014124		 0.00006751
O		0.86036098		4.26922339		0.96740060		-0.00011534		 0.00014124		-0.00006751
O		5.99725184		1.31613695		0.93483022		 0.00003802		 0.00013285		 0.00007199
O		4.11274789		4.45386332		3.29517041		-0.00003802		-0.00013285		-0.00007199
O		4.11274789		1.31613695		3.29517041		-0.00003802		 0.00013285		-0.00007199
O		5.99725184		4.45386332		0.93483022		 0.00003802		-0.00013285		 0.00007199
