# total energy = -20632.2095575 eV

CRYSTAL
PRIMVEC
		10.10999973		0.00000000		0.00000000
		0.00000000		5.76999926		0.00000000
		0.00000000		0.00000000		4.46500050
PRIMECORD
   28 1
Si		8.51261977		2.88499963		3.90776764		-0.00017136		0.00000000		 0.00019901
Si		1.59737996		2.88499963		0.55723184		 0.00017136		0.00000000		-0.00019901
Si		3.26148591		0.00000000		3.93991542		 0.00012470		0.00000000		 0.00051971
Si		6.84851382		0.00000000		0.52508407		-0.00012470		0.00000000		-0.00051971
Mg		5.05499986		2.88499963		0.00000000		0.00000000		0.00000000		0.00000000
Mg		0.00000000		0.00000000		2.23250025		0.00000000		0.00000000		0.00000000
Mg		0.00000000		2.88499963		2.23250025		0.00000000		0.00000000		0.00000000
Mg		5.05499986		0.00000000		2.23250025		0.00000000		0.00000000		0.00000000
Mg		2.50930193		1.45807933		2.22803466		-0.00008514		-0.00009254		 0.00033117
Mg		7.60069780		4.31192095		2.23696483		 0.00008514		 0.00009254		-0.00033117
Mg		7.60069780		1.45807933		2.23696483		 0.00008514		-0.00009254		-0.00033117
Mg		2.50930193		4.31192095		2.22803466		-0.00008514		 0.00009254		 0.00033117
O		3.18869391		2.88499963		0.93988219		 0.00062045		0.00000000		 0.00031576
O		6.92130581		2.88499963		3.52511730		-0.00062045		0.00000000		-0.00031576
O		1.66006196		2.88499963		3.46349988		-0.00034098		0.00000000		 0.00020823
O		8.44993777		2.88499963		1.00149961		 0.00034098		-0.00000000		-0.00020823
O		8.39635477		0.00000000		1.04213068		-0.00008195		0.00000000		-0.00020856
O		1.71364495		0.00000000		3.42286880		 0.00008195		0.00000000		 0.00020856
O		3.36662991		0.00000000		1.03096823		-0.00031266		0.00000000		 0.00078319
O		6.74336982		0.00000000		3.43403126		 0.00031266		0.00000000		-0.00078319
O		0.86036098		1.50077689		1.02114536		-0.00020535		-0.00024945		 0.00017580
O		9.24963875		4.26922339		3.44385413		 0.00020535		 0.00024945		-0.00017580
O		9.24963875		1.50077689		3.44385413		 0.00020535		-0.00024945		-0.00017580
O		0.86036098		4.26922339		1.02114536		-0.00020535		 0.00024945		 0.00017580
O		5.99725184		1.31613695		0.98676529		 0.00006981		 0.00024025		-0.00006935
O		4.11274789		4.45386332		3.47823521		-0.00006981		-0.00024025		 0.00006935
O		4.11274789		1.31613695		3.47823521		-0.00006981		 0.00024025		 0.00006935
O		5.99725184		4.45386332		0.98676529		 0.00006981		-0.00024025		-0.00006935
