# total energy = -24715.1693336 eV

CRYSTAL
PRIMVEC
		9.58926467		-0.00000954		0.01013010
		0.00000000		8.45116422		0.00000000
		-1.69089674		0.00000000		4.92907554
PRIMECORD
   40 1
Mg		-0.42272943		7.70085866		1.23226650		 0.00000124		-0.00000426		-0.00000025
Mg		-1.26817303		0.75030365		3.69680618		-0.00000010		 0.00000700		 0.00000100
Mg		4.37190386		3.47527941		1.23733155		 0.00000095		-0.00001914		-0.00000006
Mg		3.52645454		4.97587908		3.70186837		-0.00000007		 0.00002193		 0.00000080
Mg		-0.42272562		2.31424315		1.23226841		-0.00000019		-0.00011381		-0.00000147
Mg		-1.26817685		6.13692011		3.69680332		 0.00000067		 0.00011301		 0.00000210
Mg		4.37190195		6.53981858		1.23733060		-0.00000033		-0.00010226		-0.00000152
Mg		3.52645644		1.91133991		3.70186837		 0.00000081		 0.00010152		 0.00000235
Si		2.37222700		0.80593812		1.31195280		-0.00016077		 0.00010312		-0.00010720
Si		5.52614379		7.64522991		3.62725284		 0.00012020		-0.00013420		 0.00008476
Si		6.37159216		0.80592572		1.16271698		 0.00013303		 0.00013897		 0.00008608
Si		1.52675956		7.64523659		3.77647913		-0.00011147		-0.00015135		-0.00007538
Si		7.16678971		5.03149066		1.31698733		 0.00008218		 0.00021695		 0.00000456
Si		0.73157918		3.41967451		3.62221832		-0.00011641		-0.00024122		-0.00002278
Si		1.57702278		5.03148493		1.15767959		-0.00010283		 0.00024797		-0.00002135
Si		6.32132989		3.41967547		3.78151747		 0.00012210		-0.00025726		 0.00003046
O		0.86988175		0.81853779		0.74689738		 0.00036086		-0.00003067		-0.00005348
O		7.02846902		7.63262071		4.19229968		-0.00033529		 0.00002898		 0.00006263
O		7.87392406		0.81853493		1.72776477		-0.00034345		-0.00003257		 0.00006143
O		0.02443910		7.63262452		3.21143611		 0.00032738		 0.00002978		-0.00006711
O		5.66455224		5.04411799		0.75197483		 0.00019913		-0.00003841		-0.00011346
O		2.23380043		3.40704146		4.18722223		-0.00017766		 0.00003623		 0.00012104
O		3.07925071		5.04411990		1.72268541		-0.00018619		-0.00004041		 0.00011958
O		4.81911246		3.40703955		3.21651546		 0.00017158		 0.00003711		-0.00012482
O		2.94856670		2.21261498		1.76701747		 0.00012024		 0.00016706		-0.00003382
O		4.94978692		6.23853493		3.17217863		-0.00010390		-0.00013508		 0.00004349
O		5.79523911		2.21262166		0.70764277		-0.00010713		 0.00013659		 0.00004333
O		2.10312215		6.23853302		4.23155810		 0.00009838		-0.00012242		-0.00004841
O		7.74321526		6.43822380		1.77209015		 0.00004116		 0.00004017		-0.00007617
O		0.15513932		2.01292707		3.16710595		-0.00002762		-0.00001422		 0.00008415
O		1.00058579		6.43823524		0.70256723		-0.00003056		 0.00001507		 0.00008409
O		6.89777452		2.01291943		4.23663269		 0.00002283		-0.00000330		-0.00008863
O		3.38663913		0.09154863		0.23160918		-0.00004053		-0.00029776		 0.00018110
O		4.51171926		8.35960891		4.70759074		 0.00004110		 0.00029843		-0.00018172
O		5.35717335		0.09154958		2.24305393		 0.00003752		-0.00030351		-0.00017433
O		2.54118504		8.35961082		2.69614504		-0.00003748		 0.00030300		 0.00017722
O		8.18127338		4.31712692		0.23667613		-0.00007415		-0.00030194		 0.00016599
O		-0.28291593		4.13403062		4.70252474		 0.00007499		 0.00030186		-0.00016723
O		0.56253434		4.31713264		2.23798411		 0.00007112		-0.00030798		-0.00015877
O		7.33582405		4.13402680		2.70121486		-0.00007131		 0.00030704		 0.00016178
