# total energy = -24716.1272664 eV

CRYSTAL
PRIMVEC
		9.94813918		-0.00002862		-0.19912036
		-0.00002862		8.57511009		0.00000954
		-1.86264103		0.00000954		4.88972841
PRIMECORD
   40 1
Mg		-0.46568315		7.77678194		1.22243782		 0.00000403		-0.00005041		-0.00000051
Mg		-1.39698554		0.79833101		3.66730107		-0.00000082		 0.00006318		 0.00000394
Mg		4.50840075		3.48920305		1.12287287		 0.00000421		-0.00004612		-0.00000055
Mg		3.57707356		5.08587746		3.56774566		-0.00000084		 0.00005909		 0.00000392
Mg		-0.46566980		2.29010929		1.22243782		 0.00000179		-0.00012353		-0.00000773
Mg		-1.39699794		6.28500652		3.66730203		 0.00000065		 0.00011946		 0.00001183
Mg		4.50838835		6.57763953		1.12288146		 0.00000187		-0.00012720		-0.00000776
Mg		3.57708500		1.99744480		3.56773708		 0.00000072		 0.00012262		 0.00001182
Si		2.35326120		0.79127904		1.37780131		-0.00002681		-0.00018499		-0.00006092
Si		5.73227510		7.78384058		3.31283249		-0.00016894		 0.00005342		-0.00000101
Si		6.66360897		0.79122563		0.86795398		-0.00013250		-0.00004449		 0.00000793
Si		1.42183099		7.78387587		3.82265693		 0.00024899		-0.00002212		 0.00002705
Si		7.32734606		5.07882646		1.27820679		-0.00004359		-0.00021018		-0.00006058
Si		0.75819979		3.49630175		3.41243082		-0.00017995		 0.00005051		-0.00000973
Si		1.68949836		5.07880547		0.96755994		-0.00011529		-0.00006931		 0.00000761
Si		6.39593016		3.49630652		3.72305191		 0.00026049		-0.00002573		 0.00003591
O		0.85737747		0.80334264		0.78143511		 0.00019421		-0.00001872		-0.00009842
O		7.22806441		7.77174646		3.90917198		-0.00008558		 0.00000485		 0.00013896
O		8.15941354		0.80331879		1.46430301		-0.00011077		-0.00002583		 0.00013204
O		-0.07391443		7.77177031		3.22632125		 0.00003584		 0.00000858		-0.00015966
O		5.83144229		5.09087765		0.68187302		 0.00019845		-0.00001685		-0.00009951
O		2.25399482		3.48420859		4.00873503		-0.00007638		 0.00000613		 0.00014392
O		3.18532392		5.09088624		1.56387750		-0.00011567		-0.00002411		 0.00013273
O		4.90017901		3.48420096		3.12675057		 0.00002643		 0.00000968		-0.00016469
O		3.10528182		2.17576984		1.57178794		 0.00017329		 0.00012482		 0.00010415
O		4.98016291		6.39927538		3.11883059		-0.00008238		 0.00001380		-0.00008797
O		5.91150346		2.17579560		0.67396448		-0.00009841		-0.00000812		-0.00009544
O		2.17398897		6.39926584		4.01665596		 0.00004186		 0.00008375		 0.00008379
O		8.07934092		6.46330390		1.47223921		 0.00018856		 0.00014952		 0.00009828
O		0.00610000		2.11173274		3.21837742		-0.00008211		 0.00001451		-0.00008101
O		0.93742242		6.46336495		0.77352085		-0.00011330		 0.00001569		-0.00008954
O		7.14808050		2.11169363		3.91709769		 0.00004114		 0.00008486		 0.00007680
O		3.28288860		-0.26419814		0.51443163		-0.00003534		-0.00015994		-0.00004680
O		4.80258570		8.83927961		4.17618977		 0.00003791		 0.00016204		 0.00004072
O		5.73393197		-0.26420101		1.73131316		 0.00003389		-0.00016989		 0.00004941
O		2.35154138		8.83928438		2.95930346		-0.00003105		 0.00017124		-0.00004116
O		8.25697441		4.02335118		0.41483139		-0.00004053		-0.00014982		-0.00004171
O		-0.17150201		4.55172457		4.27579573		 0.00004210		 0.00015522		 0.00003615
O		0.75981850		4.02338551		1.83092771		 0.00003901		-0.00015995		 0.00004441
O		7.32565103		4.55170359		2.85969368		-0.00003522		 0.00016429		-0.00003666
