# total energy = -2552.85045295 eV	

CRYSTAL	
PRIMVEC	
		3.20103157		0.00000000		0.00000000	
		-1.60051578		2.77217689		0.00000000	
		0.00000000		0.00000000		4.79241042	
PRIMCOORD
   5 1	
Mg		0.00000000		0.00000000		0.00000000		0.00000000		-0.00000000		 0.00000111	
O		0.00000000		1.84811698		1.04220632		0.00000000		0.00000000		-0.00003579	
O		1.60051610		0.92405834		3.75022012		-0.00000000		-0.00000000		-0.00001657	
H		0.00000000		1.84811698		2.00743208		-0.00000000		-0.00000000		 0.00001750	
H		1.60051610		0.92405834		2.78496546		0.00000000		0.00000000		 0.00003375	
