# total energy = -2552.79347104 eV	

CRYSTAL	
PRIMVEC	
		3.08826834		0.00000000		0.00000000	
		-1.54413260		2.67451726		0.00000000	
		0.00000000		0.00000000		4.36690197	
PRIMCOORD
   5 1	
Mg		0.00000000		0.00000000		0.00000000		0.00000000		0.00000000		 0.00000002	
O		0.00000000		1.78301255		1.03825683		-0.00000000		-0.00000001		-0.00000432	
O		1.54413386		0.89150596		3.32864546		0.00000000		 0.00000001		 0.00000280	
H		0.00000000		1.78301255		2.00323908		-0.00000000		-0.00000001		 0.00002844	
H		1.54413386		0.89150596		2.36366258		0.00000000		 0.00000001		-0.00002694	
