# total energy = -2552.83299548 eV	

CRYSTAL	
PRIMVEC	
		3.11158512		0.00000000		0.00000000	
		-1.55579256		2.69471089		0.00000000	
		0.00000000		0.00000000		4.42350195	
PRIMCOORD
   5 1	
Mg		0.00000000		0.00000000		0.00000000		0.00000000		0.00000000		 0.00000001	
O		0.00000000		1.79647382		1.03940743		-0.00000000		-0.00000001		 0.00008837	
O		1.55579193		0.89823675		3.38409327		-0.00000000		0.00000000		-0.00008815	
H		0.00000000		1.79647414		2.00468848		0.00000000		-0.00000001		 0.00000603	
H		1.55579193		0.89823675		2.41881253		-0.00000000		0.00000000		-0.00000626	
