# total energy = -2552.29960943 eV	

CRYSTAL	
PRIMVEC	
		3.44433231		0.00000000		0.00000000	
		-1.72216773		2.98287939		0.00000000	
		0.00000000		0.00000000		6.29850911	
PRIMCOORD
   5 1	
Mg		0.00000000		0.00000000		0.00000346		0.00000000		0.00000000		-0.00003404	
O		0.00000000		1.98858699		0.98187553		 0.00000001		 0.00000001		-0.00057978	
O		1.72216710		0.99429365		5.31632661		-0.00000001		-0.00000001		 0.00171336	
H		0.00000000		1.98858699		1.94579704		-0.00000000		-0.00000000		 0.00039146	
H		1.72216710		0.99429334		4.35301465		0.00000000		0.00000000		-0.00149100	
