# total energy = -2552.59834661 eV	

CRYSTAL	
PRIMVEC	
		3.27348294		0.00000000		0.00000000	
		-1.63673990		2.83491948		0.00000000	
		0.00000000		0.00000000		5.99017840	
PRIMCOORD
   5 1	
Mg		0.00000000		0.00000000		0.00000597		0.00000000		0.00000000		-0.00002062	
O		0.00000000		1.88994517		1.02099531		 0.00000001		 0.00000002		 0.00044288	
O		1.63674116		0.94497400		4.96904736		-0.00000001		-0.00000002		 0.00006133	
H		0.00000000		1.88994548		1.98364746		-0.00000000		-0.00000000		-0.00040620	
H		1.63674084		0.94497400		4.00666228		0.00000000		0.00000000		-0.00007740	
