# total energy = -2552.86073519 eV	

CRYSTAL	
PRIMVEC	
		3.13704160		0.00000000		0.00000000	
		-1.56852080		2.71675830		0.00000000	
		0.00000000		0.00000000		4.49325435	
PRIMCOORD
   5 1	
Mg		0.00000000		0.00000000		0.00000000		-0.00000000		-0.00000000		 0.00000010	
O		0.00000000		1.81117210		1.04051247		-0.00000000		-0.00000000		-0.00004732	
O		1.56852112		0.90558589		3.45274439		0.00000000		0.00000000		 0.00003857	
H		0.00000000		1.81117210		2.00596005		-0.00000000		-0.00000001		 0.00008312	
H		1.56852112		0.90558589		2.48729147		0.00000000		 0.00000001		-0.00007447	
