# total energy = -2552.74700062 eV	

CRYSTAL	
PRIMVEC	
		3.06704099		0.00000000		0.00000000	
		-1.53352207		2.65613656		0.00000000	
		0.00000000		0.00000000		4.32288255	
PRIMCOORD
   5 1	
Mg		0.00000000		0.00000000		0.00000000		0.00000000		-0.00000000		0.00000000	
O		0.00000000		1.77075750		1.03723254		-0.00000000		-0.00000000		 0.00000813	
O		1.53352112		0.88537875		3.28565159		0.00000000		0.00000000		-0.00000830	
H		0.00000000		1.77075781		2.00190781		-0.00000000		-0.00000001		 0.00000604	
H		1.53352112		0.88537875		2.32097600		0.00000000		 0.00000001		-0.00000588	
