# total energy = -2552.48354358 eV	

CRYSTAL	
PRIMVEC	
		3.34872126		0.00000000		0.00000000	
		-1.67435906		2.90007827		0.00000000	
		0.00000000		0.00000000		6.18060558	
PRIMCOORD
   5 1	
Mg		0.00000000		0.00000000		0.00000534		0.00000000		0.00000000		-0.00001852	
O		0.00000000		1.93338457		1.00328511		 0.00000001		 0.00000001		-0.00054150	
O		1.67436032		0.96669244		5.17718567		-0.00000001		-0.00000001		 0.00103618	
H		0.00000000		1.93338457		1.96621470		-0.00000001		-0.00000000		 0.00034987	
H		1.67436032		0.96669244		4.21451844		0.00000000		0.00000000		-0.00082604	
