# total energy = -12354.6757006 eV

CRYSTAL
PRIMVEC
		4.82070751		0.00000000		0.00000000
		0.00000000		4.98300859		0.00000000
		0.00000000		0.00000000		6.97503946
PRIMECORD
   20 1
O		0.50169143		2.32140730		1.74376009		 0.00035779		-0.00069321		 0.00000006
O		4.31901474		2.66160351		5.23128071		-0.00035786		 0.00069308		-0.00000009
O		2.91204429		0.17009744		5.23128071		 0.00035774		 0.00069333		-0.00000014
O		1.90866188		4.81291293		1.74376009		-0.00035779		-0.00069321		 0.00000009
O		0.94867858		1.00483234		3.86279242		-0.00010633		-0.00017556		-0.00013050
O		3.87202715		3.97817847		3.11224882		 0.00010635		 0.00017552		 0.00013051
O		3.35903189		1.48667329		3.11224882		-0.00010651		 0.00017525		 0.00013044
O		1.46167428		3.49633752		3.86279198		 0.00010657		-0.00017524		-0.00013040
O		3.87202759		3.97817847		0.37527225		 0.00010628		 0.00017557		-0.00013047
O		0.94867858		1.00483234		6.59976899		-0.00010633		-0.00017548		 0.00013043
O		1.46167428		3.49633752		6.59976943		 0.00010650		-0.00017524		 0.00013036
O		3.35903189		1.48667329		0.37527180		-0.00010650		 0.00017525		-0.00013036
Mg		2.48698428		2.78183628		1.74376009		-0.00054692		 0.00009097		 0.00000028
Mg		2.33372145		2.20117453		5.23128071		 0.00054696		-0.00009113		-0.00000029
Mg		0.07663186		4.69267972		5.23128071		-0.00054690		-0.00009125		-0.00000030
Mg		4.74407432		0.29033110		1.74376053		 0.00054689		 0.00009139		 0.00000030
Si		2.41035286		0.00000000		3.48752062		-0.00000001		-0.00000008		-0.00000005
Si		0.00000000		2.49150518		3.48752062		 0.00000004		 0.00000009		 0.00000006
Si		2.41035286		0.00000000		0.00000000		 0.00000004		-0.00000011		 0.00000008
Si		0.00000000		2.49150518		0.00000000		-0.00000002		 0.00000008		-0.00000002
