# total energy = -38097.5527679 eV

CRYSTAL
PRIMVEC
		5.69210020		0.00000000		0.22768378
		0.00000000		11.46000005		0.00000000
		0.33012097		0.00000000		8.25300155
PRIMECORD
   58 1
O		1.86350527		1.40843393		8.25583278		-0.00062239		-0.00082763		 0.00021064
O		4.15871477		10.05156612		0.22485084		 0.00062239		 0.00082763		-0.00021064
O		4.48414797		4.32156609		8.36065915		-0.00027731		 0.00011238		-0.00007289
O		1.53807207		7.13843396		0.12002504		 0.00027731		-0.00011238		 0.00007289
O		1.53807207		10.05156612		0.12002504		 0.00027731		 0.00011238		 0.00007289
O		4.48414797		1.40843393		8.36065915		-0.00027731		-0.00011238		-0.00007289
O		4.15871477		7.13843396		0.22485084		 0.00062239		-0.00082763		-0.00021064
O		1.86350527		4.32156609		8.25583278		-0.00062239		 0.00082763		 0.00021064
O		3.09548882		5.60967022		6.34980885		 0.00012429		-0.00046001		 0.00033319
O		2.92673121		5.85032983		2.13087477		-0.00012429		 0.00046001		-0.00033319
O		3.09548882		0.12032981		6.34980885		 0.00012429		 0.00046001		 0.00033319
O		2.92673121		11.33966967		2.13087477		-0.00012429		-0.00046001		-0.00033319
O		0.23662980		2.86500001		5.91575018		-0.00038441		-0.00000000		 0.00031038
O		0.09349003		8.59500004		2.33725022		 0.00038441		-0.00000000		-0.00031038
O		0.07219709		2.86500001		1.80493115		-0.00055388		0.00000000		-0.00037699
O		0.25792275		8.59500004		6.44806868		 0.00055388		0.00000000		 0.00037699
O		3.08330710		8.59500004		6.04527325		 0.00013018		0.00000000		-0.00035093
O		2.93891293		2.86500001		2.43541094		-0.00013018		0.00000000		 0.00035093
O		2.91761999		8.59500004		1.90309187		 0.00001589		-0.00000000		-0.00064065
O		3.10460005		2.86500001		6.57759175		-0.00001589		0.00000000		 0.00064065
O		0.08437881		11.33966967		2.10946675		-0.00002636		-0.00007492		-0.00012695
O		0.24574103		0.12032981		6.14353422		 0.00002636		 0.00007492		 0.00012695
O		0.08437881		5.85032983		2.10946675		-0.00002636		 0.00007492		-0.00012695
O		0.24574103		5.60967022		6.14353422		 0.00002636		-0.00007492		 0.00012695
O		4.54449488		7.13843396		4.24317504		 0.00040143		-0.00016608		 0.00040192
O		1.47772516		4.32156609		4.23750915		-0.00040143		 0.00016608		-0.00040192
O		1.47303795		10.05156612		4.12031706		-0.00049061		-0.00024672		 0.00022603
O		4.54918322		1.40843393		4.36036713		 0.00049061		 0.00024672		-0.00022603
O		4.54918322		4.32156609		4.36036713		 0.00049061		-0.00024672		-0.00022603
O		1.47303795		7.13843396		4.12031706		-0.00049061		 0.00024672		 0.00022603
O		1.47772516		1.40843393		4.23750915		-0.00040143		-0.00016608		-0.00040192
O		4.54449488		10.05156612		4.24317504		 0.00040143		 0.00016608		 0.00040192
H		3.04131594		8.59500004		4.99549197		 0.00029418		0.00000000		-0.00010771
H		2.98090409		2.86500001		3.48519279		-0.00029418		0.00000000		 0.00010771
H		0.11418882		2.86500001		2.85471300		 0.00023732		0.00000000		-0.00053231
H		0.21593102		8.59500004		5.39828684		-0.00023732		0.00000000		 0.00053231
Mg		3.01111002		5.73000003		4.24034209		0.00000000		0.00000000		0.00000000
Mg		3.01111002		0.00000000		4.24034209		0.00000000		0.00000000		0.00000000
Mg		0.00000000		0.00000000		0.00000000		0.00000000		0.00000000		0.00000000
Mg		0.00000000		5.73000003		0.00000000		0.00000000		0.00000000		0.00000000
Mg		1.50555501		1.44854406		2.12017076		-0.00000751		-0.00000711		-0.00012964
Mg		4.51666503		10.01145599		6.36051286		 0.00000751		 0.00000711		 0.00012964
Mg		4.35160511		4.28145597		2.23401322		-0.00013070		 0.00034451		-0.00053286
Mg		1.67061493		7.17854408		6.24667097		 0.00013070		-0.00034451		 0.00053286
Mg		1.67061493		10.01145599		6.24667097		 0.00013070		 0.00034451		 0.00053286
Mg		4.35160511		1.44854406		2.23401322		-0.00013070		-0.00034451		-0.00053286
Mg		4.51666503		7.17854408		6.36051286		 0.00000751		-0.00000711		 0.00012964
Mg		1.50555501		4.28145597		2.12017076		-0.00000751		 0.00000711		-0.00012964
Mg		0.32024925		2.86500001		8.00623512		 0.00007567		0.00000000		-0.00074718
Mg		0.00987116		8.59500004		0.24676472		-0.00007567		0.00000000		 0.00074718
Si		2.88454181		7.10634586		1.07614196		 0.00005837		 0.00019767		-0.00026433
Si		3.13767823		4.35365419		7.40454279		-0.00005837		-0.00019767		 0.00026433
Si		2.88454181		10.08365422		1.07614196		 0.00005837		-0.00019767		-0.00026433
Si		3.13767823		1.37634583		7.40454279		-0.00005837		 0.00019767		 0.00026433
Si		0.20355219		1.37634583		5.08879971		-0.00027494		 0.00012608		 0.00052817
Si		0.12656821		10.08365422		3.16420013		 0.00027494		-0.00012608		-0.00052817
Si		0.20355219		4.35365419		5.08879971		-0.00027494		-0.00012608		 0.00052817
Si		0.12656821		7.10634586		3.16420013		 0.00027494		 0.00012608		-0.00052817
