# total energy = -4139.22646109 eV

CRYSTAL
PRIMVEC
		3.30778719		0.00000000		0.00000000
		-1.65389360		2.86462971		0.00000000
		0.00000000		0.00000000		4.98288370
PRIMECORD
   4 1
Mg		0.00000000		1.90975226		0.01076189		-0.00000000		0.00000000		 0.00057967
Mg		1.65389293		0.95487613		2.50220208		0.00000000		0.00000000		 0.00057967
O		0.00000000		1.90975226		2.00531225		0.00000000		0.00000000		-0.00057967
O		1.65389293		0.95487613		4.49675311		0.00000000		-0.00000000		-0.00057967
