# total energy = -20638.684598 eV

CRYSTAL
PRIMVEC
		9.94637496		0.00000000		0.00000000
		0.00000000		5.98348057		0.00000000
		0.00000000		0.00000000		4.75534198
PRIMECORD
   28 1
Mg		0.00000000		0.00000000		0.00000000		0.00000000		-0.00000000		0.00000000
Mg		4.97318848		0.00000000		2.37766999		-0.00000000		0.00000000		0.00000000
Mg		0.00000000		2.99174029		0.00000000		0.00000000		0.00000000		0.00000000
Mg		4.97318848		2.99174029		2.37766999		0.00000000		0.00000000		0.00000000
Mg		2.75812978		1.49587014		4.71491991		 0.00083366		0.00000000		-0.00055114
Mg		7.18824519		4.48761043		0.04042008		-0.00083366		0.00000000		 0.00055114
Mg		2.21505770		4.48761043		2.33724992		-0.00083366		0.00000000		-0.00055114
Mg		7.73131726		1.49587014		2.41809007		 0.00083366		0.00000000		 0.00055114
Si		0.93495925		1.49587014		2.02767695		 0.00009248		0.00000000		-0.00050708
Si		9.01141572		4.48761043		2.72766304		-0.00009248		0.00000000		 0.00050708
Si		4.03822823		4.48761043		4.40534695		-0.00009248		0.00000000		-0.00050708
Si		5.90814673		1.49587014		0.34999304		 0.00009248		0.00000000		 0.00050708
O		0.91108795		1.49587014		3.63926223		-0.00065545		0.00000000		 0.00014163
O		9.03528702		4.48761043		1.11607776		 0.00065545		0.00000000		-0.00014163
O		4.06209953		4.48761043		1.26159223		 0.00065545		0.00000000		 0.00014163
O		5.88427543		1.49587014		3.49374776		-0.00065545		0.00000000		-0.00014163
O		4.44503497		1.49587014		1.05140643		-0.00024587		0.00000000		-0.00043640
O		5.50133999		4.48761043		3.70393455		 0.00024587		0.00000000		 0.00043640
O		0.52815152		4.48761043		3.42907643		 0.00024587		0.00000000		-0.00043640
O		9.41822345		1.49587014		1.32626356		-0.00024587		0.00000000		 0.00043640
O		1.61827521		0.19865198		1.32103276		-0.00039201		-0.00029434		-0.00083239
O		8.32809976		5.78482759		3.43430722		 0.00039201		 0.00029434		 0.00083239
O		3.35491227		5.78482759		3.69870276		 0.00039201		 0.00029434		-0.00083239
O		6.59146269		0.19865198		1.05663723		-0.00039201		-0.00029434		 0.00083239
O		8.32809976		3.19039227		3.43430722		 0.00039201		-0.00029434		 0.00083239
O		1.61827521		2.79308830		1.32103276		-0.00039201		 0.00029434		-0.00083239
O		6.59146269		2.79308830		1.05663723		-0.00039201		 0.00029434		 0.00083239
O		3.35491227		3.19039227		3.69870276		 0.00039201		-0.00029434		-0.00083239
