# total energy = -20638.8536598 eV

CRYSTAL
PRIMVEC
		10.45644569		0.00000000		0.00000000
		0.00000000		5.98348146		0.00000000
		0.00000000		0.00000000		4.75534055
PRIMECORD
   28 1
Mg		0.00000000		0.00000000		0.00000000		0.00000000		0.00000000		0.00000000
Mg		5.22822285		0.00000000		2.37767027		0.00000000		0.00000000		0.00000000
Mg		0.00000000		2.99173968		0.00000000		0.00000000		0.00000000		0.00000000
Mg		5.22822285		2.99173968		2.37767027		0.00000000		-0.00000000		0.00000000
Mg		2.89957239		1.49586984		4.71492011		 0.00032452		0.00000000		 0.00009669
Mg		7.55687226		4.48760953		0.04042044		-0.00032452		0.00000000		-0.00009669
Mg		2.32864941		4.48760953		2.33724984		-0.00032452		-0.00000000		 0.00009669
Mg		8.12779524		1.49586984		2.41808966		 0.00032452		0.00000000		-0.00009669
Si		0.98290589		1.49586984		2.02767735		-0.00017317		0.00000000		 0.00050994
Si		9.47353980		4.48760953		2.72766319		 0.00017317		0.00000000		-0.00050994
Si		4.24531695		4.48760953		4.40534658		 0.00017317		0.00000000		 0.00050994
Si		6.21112769		1.49586984		0.34999292		-0.00017317		0.00000000		-0.00050994
O		0.95781043		1.49586984		3.63926240		 0.00052035		0.00000000		-0.00006317
O		9.49863422		4.48760953		1.11607814		-0.00052035		0.00000000		 0.00006317
O		4.27041137		4.48760953		1.26159213		-0.00052035		0.00000000		-0.00006317
O		6.18603327		1.49586984		3.49374841		 0.00052035		-0.00000000		 0.00006317
O		4.67298558		1.49586984		1.05140607		-0.00023774		0.00000000		 0.00013633
O		5.78346011		4.48760953		3.70393447		 0.00023774		0.00000000		-0.00013633
O		0.55523727		4.48760953		3.42907634		 0.00023774		0.00000000		 0.00013633
O		9.90120738		1.49586984		1.32626420		-0.00023774		0.00000000		-0.00013633
O		1.70126371		0.19865156		1.32103284		 0.00039810		 0.00007579		 0.00009299
O		8.75518198		5.78482781		3.43430666		-0.00039810		-0.00007579		-0.00009299
O		3.52695913		5.78482781		3.69870312		-0.00039810		-0.00007579		 0.00009299
O		6.92948551		0.19865156		1.05663743		 0.00039810		 0.00007579		-0.00009299
O		8.75518198		3.19039229		3.43430666		-0.00039810		 0.00007579		-0.00009299
O		1.70126371		2.79308813		1.32103284		 0.00039810		-0.00007579		 0.00009299
O		6.92948551		2.79308813		1.05663743		 0.00039810		-0.00007579		-0.00009299
O		3.52695913		3.19039229		3.69870312		-0.00039810		 0.00007579		 0.00009299
