# total energy = -20637.745728 eV

CRYSTAL
PRIMVEC
		11.22155072		0.00000000		0.00000000
		0.00000000		5.98347673		0.00000000
		0.00000000		0.00000000		4.75534533
PRIMECORD
   28 1
Mg		0.00000000		0.00000000		0.00000000		0.00000000		0.00000000		0.00000000
Mg		5.61077536		0.00000000		2.37767042		0.00000000		0.00000000		-0.00000000
Mg		0.00000000		2.99173949		0.00000000		0.00000000		0.00000000		0.00000000
Mg		5.61077536		2.99173949		2.37767042		0.00000000		0.00000000		0.00000000
Mg		3.11173602		1.49586974		4.71491969		-0.00004002		0.00000000		 0.00028931
Mg		8.10981471		4.48761035		0.04042003		 0.00004002		0.00000000		-0.00028931
Mg		2.49903935		4.48761035		2.33725039		 0.00004002		0.00000000		 0.00028931
Mg		8.72251138		1.49586974		2.41809045		-0.00004002		0.00000000		-0.00028931
Si		1.05482577		1.49586974		2.02767699		-0.00044425		0.00000000		-0.00040731
Si		10.16672608		4.48761035		2.72766273		 0.00044425		0.00000000		 0.00040731
Si		4.55594959		4.48761035		4.40534741		 0.00044425		0.00000000		-0.00040731
Si		6.66560113		1.49586974		0.34999343		-0.00044425		0.00000000		 0.00040731
O		1.02789405		1.49586974		3.63926224		-0.00048277		0.00000000		-0.00014358
O		10.19365668		4.48761035		1.11607748		 0.00048277		0.00000000		 0.00014358
O		4.58288244		4.48761035		1.26159182		 0.00048277		0.00000000		-0.00014358
O		6.63866941		1.49586974		3.49374790		-0.00048277		0.00000000		 0.00014358
O		5.01491102		1.49586974		1.05140544		 0.00010902		0.00000000		-0.00005663
O		6.20663971		4.48761035		3.70393540		-0.00010902		0.00000000		 0.00005663
O		0.59586434		4.48761035		3.42907586		-0.00010902		0.00000000		-0.00005663
O		10.62568638		1.49586974		1.32626386		 0.00010902		0.00000000		 0.00005663
O		1.82574630		0.19865175		1.32103349		-0.00006212		-0.00061271		 0.00047036
O		9.39580442		5.78482835		3.43430735		 0.00006212		 0.00061271		-0.00047036
O		3.78502906		5.78482835		3.69870279		 0.00006212		 0.00061271		 0.00047036
O		7.43652167		0.19865175		1.05663693		-0.00006212		-0.00061271		-0.00047036
O		9.39580442		3.19039235		3.43430735		 0.00006212		-0.00061271		-0.00047036
O		1.82574630		2.79308774		1.32103349		-0.00006212		 0.00061271		 0.00047036
O		7.43652167		2.79308774		1.05663693		-0.00006212		 0.00061271		-0.00047036
O		3.78502906		3.19039235		3.69870279		 0.00006212		-0.00061271		 0.00047036
