# total energy = -20638.2544507 eV

CRYSTAL
PRIMVEC
		10.96651589		0.00000000		0.00000000
		0.00000000		5.98348460		0.00000000
		0.00000000		0.00000000		4.75534449
PRIMECORD
   28 1
Mg		0.00000000		0.00000000		0.00000000		0.00000000		0.00000000		0.00000000
Mg		5.48325794		0.00000000		2.37767005		0.00000000		0.00000000		0.00000000
Mg		0.00000000		2.99174011		0.00000000		0.00000000		0.00000000		0.00000000
Mg		5.48325794		2.99174011		2.37767005		-0.00000000		-0.00000000		0.00000000
Mg		3.04101486		1.49587005		4.71491972		-0.00020339		0.00000000		 0.00017445
Mg		7.92550103		4.48761016		0.04042038		 0.00020339		-0.00000000		-0.00017445
Mg		2.44224309		4.48761016		2.33724967		 0.00020339		0.00000000		 0.00017445
Mg		8.52427280		1.49587005		2.41809043		-0.00020339		0.00000000		-0.00017445
Si		1.03085249		1.49587005		2.02767699		-0.00001783		0.00000000		-0.00021951
Si		9.93566340		4.48761016		2.72766311		 0.00001783		0.00000000		 0.00021951
Si		4.45240545		4.48761016		4.40534703		 0.00001783		-0.00000000		-0.00021951
Si		6.51411044		1.49587005		0.34999306		-0.00001783		0.00000000		 0.00021951
O		1.00453286		1.49587005		3.63926242		-0.00066619		0.00000000		 0.00027181
O		9.96198303		4.48761016		1.11607768		 0.00066619		0.00000000		-0.00027181
O		4.47872509		4.48761016		1.26159237		 0.00066619		0.00000000		 0.00027181
O		6.48779080		1.49587005		3.49374773		-0.00066619		0.00000000		-0.00027181
O		4.90093595		1.49587005		1.05140594		-0.00005513		0.00000000		-0.00019133
O		6.06557994		4.48761016		3.70393526		 0.00005513		0.00000000		 0.00019133
O		0.58232199		4.48761016		3.42907599		 0.00005513		-0.00000000		-0.00019133
O		10.38419390		1.49587005		1.32626411		-0.00005513		-0.00000000		 0.00019133
O		1.78425214		0.19865186		1.32103308		 0.00012641		-0.00075929		 0.00024119
O		9.18226375		5.78482836		3.43430702		-0.00012641		 0.00075929		-0.00024119
O		3.69900581		5.78482836		3.69870313		-0.00012641		 0.00075929		 0.00024119
O		7.26751008		0.19865186		1.05663697		 0.00012641		-0.00075929		-0.00024119
O		9.18226375		3.19039196		3.43430702		-0.00012641		-0.00075929		-0.00024119
O		1.78425214		2.79308825		1.32103308		 0.00012641		 0.00075929		 0.00024119
O		7.26751008		2.79308825		1.05663697		 0.00012641		 0.00075929		-0.00024119
O		3.69900581		3.19039196		3.69870313		-0.00012641		-0.00075929		 0.00024119
