# total energy = -20637.4951401 eV

CRYSTAL
PRIMVEC
		9.43630476		0.00000000		0.00000000
		0.00000000		5.98347592		0.00000000
		0.00000000		0.00000000		4.75534086
PRIMECORD
   28 1
Mg		0.00000000		0.00000000		0.00000000		0.00000000		0.00000000		0.00000000
Mg		4.71815144		0.00000000		2.37766949		0.00000000		-0.00000000		0.00000000
Mg		0.00000000		2.99173985		0.00000000		0.00000000		0.00000000		0.00000000
Mg		4.71815144		2.99173985		2.37766949		0.00000000		-0.00000000		0.00000000
Mg		2.61668731		1.49587040		4.71491950		 0.00017997		0.00000000		-0.00025667
Mg		6.81961651		4.48761025		0.04042041		-0.00017997		0.00000000		 0.00025667
Mg		2.10146507		4.48761025		2.33725002		-0.00017997		0.00000000		-0.00025667
Mg		7.33483969		1.49587040		2.41808990		 0.00017997		0.00000000		 0.00025667
Si		0.88701265		1.49587040		2.02767694		 0.00043967		0.00000000		-0.00002760
Si		8.54929212		4.48761025		2.72766297		-0.00043967		0.00000000		 0.00002760
Si		3.83113973		4.48761025		4.40534643		-0.00043967		0.00000000		-0.00002760
Si		5.60516503		1.49587040		0.34999254		 0.00043967		0.00000000		 0.00002760
O		0.86436552		1.49587040		3.63926191		 0.00028169		0.00000000		-0.00029679
O		8.57193925		4.48761025		1.11607800		-0.00028169		0.00000000		 0.00029679
O		3.85378687		4.48761025		1.26159243		-0.00028169		0.00000000		-0.00029679
O		5.58251790		1.49587040		3.49374749		 0.00028169		0.00000000		 0.00029679
O		4.21708460		1.49587040		1.05140629		-0.00040076		0.00000000		 0.00056087
O		5.21922017		4.48761025		3.70393457		 0.00040076		0.00000000		-0.00056087
O		0.50106778		4.48761025		3.42907577		 0.00040076		0.00000000		 0.00056087
O		8.93523698		1.49587040		1.32626414		-0.00040076		0.00000000		-0.00056087
O		1.53528679		0.19865214		1.32103265		 0.00023023		 0.00006024		 0.00027707
O		7.90101798		5.78482755		3.43430726		-0.00023023		-0.00006024		-0.00027707
O		3.18286560		5.78482755		3.69870308		-0.00023023		-0.00006024		 0.00027707
O		6.25343917		0.19865214		1.05663683		 0.00023023		 0.00006024		-0.00027707
O		7.90101798		3.19039199		3.43430726		-0.00023023		 0.00006024		-0.00027707
O		1.53528679		2.79308771		1.32103265		 0.00023023		-0.00006024		 0.00027707
O		6.25343917		2.79308771		1.05663683		 0.00023023		-0.00006024		-0.00027707
O		3.18286560		3.19039199		3.69870308		-0.00023023		 0.00006024		 0.00027707
