# total energy = -14250.3344024 eV	

CRYSTAL	
PRIMVEC	
		7.86000006		0.00000000		-0.31439969	
		0.00000000		7.86000006		0.00000000	
		-0.20095999		0.00000000		5.02399972	
PRIMCOORD
   24 1	
O		1.05392489		2.82496316		1.23360265		-0.00091303		 0.00092452		 0.00031982	
O		6.70384965		5.03503769		1.00760585		-0.00041592		 0.00034993		-0.00018533	
O		2.67511515		6.75496241		3.63319722		 0.00091303		 0.00092452		-0.00031982	
O		4.88518967		1.10503687		3.54479355		 0.00041592		 0.00034993		 0.00018533	
O		0.49254037		1.46384567		3.93458214		-0.00064656		 0.00029031		-0.00033402	
O		7.05060966		6.39615361		3.67225884		-0.00068861		 0.00062416		-0.00065505	
O		1.42131109		7.20903507		1.00482590		-0.00035637		-0.00070424		 0.00071737	
O		6.35361746		0.65096499		0.80753396		-0.00046789		-0.00018580		-0.00005504	
O		3.23649967		5.39384649		0.93221930		 0.00064656		 0.00029031		 0.00033402	
O		4.53842966		2.46615357		0.88014135		 0.00068861		 0.00062416		 0.00065505	
O		2.30772895		3.27903504		3.86197397		 0.00035637		-0.00070424		-0.00071737	
O		5.23542186		4.58096503		3.74486622		 0.00046789		-0.00018580		 0.00005504	
O		-0.16464686		3.93000003		4.11616275		 0.00004772		-0.00022826		 0.00027185	
O		3.89368690		0.00000000		0.75063712		-0.00004772		-0.00022826		-0.00027185	
Ca		2.50498864		1.32313671		2.44259169		 0.00009029		-0.00038412		 0.00060789	
Ca		5.15126205		6.53686257		2.33674060		-0.00047040		-0.00076731		 0.00076703	
Ca		1.22405062		5.25313674		2.42420818		-0.00009029		-0.00038412		-0.00060789	
Ca		6.43777805		2.60686254		2.21565880		 0.00047040		-0.00076731		-0.00076703	
Si		0.91171898		2.83030673		4.65536121		 0.00019048		-0.00023084		 0.00015243	
Si		6.57233401		5.02969255		4.42893648		 0.00002391		 0.00039893		-0.00047072	
Si		2.81732107		6.76030755		0.21143867		-0.00019048		-0.00023084		-0.00015243	
Si		5.01670688		1.09969330		0.12346292		-0.00002391		 0.00039893		 0.00047072	
Mg		0.00000000		0.00000000		0.00000000		-0.00064465		-0.00008729		-0.00050226	
Mg		3.93000003		3.93000003		-0.15719984		 0.00064465		-0.00008729		 0.00050226	
