# total energy = -14248.0288084 eV	

CRYSTAL	
PRIMVEC	
		7.86000253		0.00000000		-1.25760391	
		0.00000000		7.86000253		0.00000000	
		-0.80383775		0.00000000		5.02399989	
PRIMCOORD
   24 1	
O		0.90058882		2.82496295		1.10099783		 0.00025217		 0.00029840		-0.00030171	
O		6.55051393		5.03503798		0.19701010		 0.00046555		-0.00010076		 0.00005627	
O		2.22557071		6.75496263		3.29420170		-0.00025217		 0.00029840		 0.00030171	
O		4.43564574		1.10503672		2.94058950		-0.00046555		-0.00010076		-0.00005627	
O		0.01726597		1.46384598		3.85646545		 0.00006752		-0.00060480		 0.00005395	
O		6.57533551		6.39615336		2.80717480		 0.00029408		-0.00005349		 0.00047954	
O		1.29370556		7.20903444		0.82916479		 0.00004326		 0.00036906		 0.00015752	
O		6.22601295		0.65096490		0.03999488		 0.00035703		 0.00017776		-0.00005453	
O		3.10889356		5.39384645		0.53873408		-0.00006752		-0.00060480		-0.00005395	
O		4.41082416		2.46615369		0.33042559		-0.00029408		-0.00005349		-0.00047954	
O		1.83245397		3.27903477		3.56603553		-0.00004326		 0.00036906		-0.00015752	
O		4.76014673		4.58096458		3.09760472		-0.00035703		 0.00017776		 0.00005453	
O		-0.65858578		3.92999967		4.11616272		 0.00019382		 0.00013845		 0.00001591	
O		3.78474611		0.00000000		0.27903681		-0.00019382		 0.00013845		-0.00001591	
Ca		2.19936489		1.32313676		2.12976926		 0.00013618		 0.00024676		 0.00036392	
Ca		4.84563762		6.53686258		1.70636483		-0.00024838		-0.00039994		-0.00015830	
Ca		0.92679464		5.25313644		2.26543186		-0.00013618		 0.00024676		-0.00036392	
Ca		6.14052205		2.60686291		1.43123477		 0.00024838		-0.00039994		 0.00015830	
Si		0.34779664		2.83030648		4.52339806		-0.00007206		-0.00020359		-0.00055209	
Si		6.00841199		5.02969286		3.61769973		 0.00012052		-0.00008791		 0.00024598	
Si		2.77836289		6.76030775		-0.12819773		 0.00007206		-0.00020359		 0.00055209	
Si		4.97774768		1.09969319		-0.48010013		-0.00012052		-0.00008791		-0.00024598	
Mg		0.00000000		0.00000000		0.00000000		 0.00025166		 0.00022004		-0.00085949	
Mg		3.92999967		3.92999967		-0.62880036		-0.00025166		 0.00022004		 0.00085949	
