# total energy = -14250.3344025 eV	

CRYSTAL	
PRIMVEC	
		7.86000006		0.00000000		0.31439969	
		0.00000000		7.86000006		0.00000000	
		0.20095999		0.00000000		5.02399972	
PRIMCOORD
   24 1	
O		1.15614963		2.82496316		1.32200632		 0.00041599		-0.00034947		-0.00018550	
O		6.80607438		5.03503769		1.54800312		 0.00091394		-0.00092442		 0.00032088	
O		2.97480960		6.75496241		3.85919481		-0.00041599		-0.00034947		 0.00018550	
O		5.18488491		1.10503687		3.94759770		-0.00091394		-0.00092442		-0.00032088	
O		0.80938962		1.46384567		3.98665852		 0.00068862		-0.00062544		-0.00065530	
O		7.36745969		6.39615361		4.24898183		 0.00064677		-0.00029134		-0.00033462	
O		1.50638182		7.20903507		1.12193365		 0.00046807		 0.00018479		-0.00005407	
O		6.43868897		0.65096499		1.31922559		 0.00035613		 0.00070399		 0.00071789	
O		3.32156961		5.39384649		1.19454104		-0.00068862		-0.00062544		 0.00065530	
O		4.62349960		2.46615357		1.24661899		-0.00064677		-0.00029134		 0.00033462	
O		2.62457820		3.27903504		4.05926591		-0.00046807		 0.00018479		 0.00005407	
O		5.55227111		4.58096503		4.17637366		-0.00035613		 0.00070399		-0.00071789	
O		0.16464686		3.93000003		4.11616275		-0.00004807		 0.00022865		 0.00027310	
O		3.96631395		0.00000000		1.06503681		 0.00004807		 0.00022865		-0.00027310	
Ca		2.70873801		1.32313671		2.65114107		 0.00047046		 0.00076724		 0.00076775	
Ca		5.35501064		6.53686257		2.75699216		-0.00009054		 0.00038382		 0.00060787	
Ca		1.42222201		5.25313674		2.53005928		-0.00047046		 0.00076724		-0.00076775	
Ca		6.63594866		2.60686254		2.73860787		 0.00009054		 0.00038382		-0.00060787	
Si		1.28766684		2.83030673		4.74333695		-0.00002503		-0.00039912		-0.00047086	
Si		6.94828187		5.02969255		4.96976089		-0.00019172		 0.00023091		 0.00015218	
Si		2.84329318		6.76030755		0.43786261		 0.00002503		-0.00039912		 0.00047086	
Si		5.04267900		1.09969330		0.52583914		 0.00019172		 0.00023091		-0.00015218	
Mg		0.00000000		0.00000000		0.00000000		 0.00064292		 0.00009039		-0.00050288	
Mg		3.93000003		3.93000003		0.15719984		-0.00064292		 0.00009039		 0.00050288	
