# total energy = -14249.8876123 eV	

CRYSTAL	
PRIMVEC	
		7.85999768		0.00000000		0.62879824	
		0.00000000		7.85999768		0.00000000	
		0.40191992		0.00000000		5.02399896	
PRIMCOORD
   24 1	
O		1.20726186		2.82496272		1.36620679		-0.00030593		 0.00069037		-0.00016557	
O		6.85718651		5.03503812		1.81820111		-0.00006556		-0.00010617		 0.00047614	
O		3.12465768		6.75496314		3.97219286		 0.00030593		 0.00069037		 0.00016557	
O		5.33473308		1.10503691		4.14899915		 0.00006556		-0.00010617		-0.00047614	
O		0.96781468		1.46384577		4.01269710		-0.00010993		 0.00005646		-0.00049208	
O		7.52588499		6.39615428		4.53734327		-0.00055872		-0.00014995		 0.00002270	
O		1.54891666		7.20903518		1.18048797		 0.00056657		-0.00017609		 0.00052400	
O		6.48122360		0.65096486		1.57507236		-0.00032372		-0.00024830		 0.00043121	
O		3.36410487		5.39384697		1.32570334		 0.00010993		 0.00005646		 0.00049208	
O		4.66603618		2.46615386		1.42985699		 0.00055872		-0.00014995		-0.00002270	
O		2.78300289		3.27903477		4.15791169		-0.00056657		-0.00017609		-0.00052400	
O		5.71069600		4.58096528		4.39212789		 0.00032372		-0.00024830		-0.00043121	
O		0.32929331		3.92999963		4.11616318		-0.00023989		 0.00006809		-0.00014866	
O		4.00262703		0.00000000		1.22223727		 0.00023989		 0.00006809		 0.00014866	
Ca		2.81061260		1.32313674		2.75541603		-0.00022652		-0.00025563		-0.00014095	
Ca		5.45688608		6.53686252		2.96711788		 0.00016300		-0.00038559		 0.00012158	
Ca		1.52130694		5.25313715		2.58298362		 0.00022652		-0.00025563		 0.00014095	
Ca		6.73503352		2.60686289		3.00008317		-0.00016300		-0.00038559		-0.00012158	
Si		1.47564111		2.83030725		4.78732496		-0.00020112		 0.00018757		-0.00023596	
Si		7.13625560		5.02969280		5.24017403		-0.00014119		-0.00012784		 0.00044210	
Si		2.85627923		6.76030767		0.55107627		 0.00020112		 0.00018757		 0.00023596	
Si		5.05566478		1.09969317		0.72702623		 0.00014119		-0.00012784		-0.00044210	
Mg		0.00000000		0.00000000		0.00000000		 0.00015071		 0.00044709		-0.00008818	
Mg		3.92999963		3.92999963		0.31439991		-0.00015071		 0.00044709		 0.00008818	
