# total energy = -8279.29306025 eV	

CRYSTAL	
PRIMVEC	
		4.21100007		0.00000000		0.00000000	
		0.00000000		4.21100007		0.00000000	
		0.00000000		0.00000000		4.21100007	
PRIMCOORD
   8 1	
Mg		0.00000000		0.00000000		0.00000000		0.00000000		0.00000000		0.00000000	
Mg		0.00000000		2.10550003		2.10550003		0.00000000		0.00000000		0.00000000	
Mg		2.10550003		0.00000000		2.10550003		0.00000000		0.00000000		0.00000000	
Mg		2.10550003		2.10550003		0.00000000		0.00000000		0.00000000		0.00000000	
O		2.10550003		2.10550003		2.10550003		0.00000000		0.00000000		0.00000000	
O		2.10550003		0.00000000		0.00000000		0.00000000		0.00000000		0.00000000	
O		0.00000000		2.10550003		0.00000000		0.00000000		0.00000000		0.00000000	
O		0.00000000		0.00000000		2.10550003		0.00000000		0.00000000		0.00000000	
