# total energy = -9213.87165786 eV

CRYSTAL
PRIMVEC
		5.61818405		0.00000533		-0.00001065
		-2.80908670		4.86547649		0.00004793
		-0.00001598		0.00006924		9.82492493
PRIMECORD
   18 1
Mg		1.85997864		0.00002823		4.22043455		 0.00016121		 0.00000171		-0.00002622
Mg		-0.93004365		1.61093223		4.22047023		-0.00006074		 0.00011041		-0.00003183
Mg		1.87911922		3.25472215		4.22045266		-0.00009043		-0.00015781		-0.00002373
Si		0.00000586		3.24365153		1.47432460		-0.00000188		 0.00000252		-0.00030643
Si		2.80909735		1.62183349		1.47430596		-0.00000283		 0.00000311		-0.00031005
H		3.71178240		0.00007403		6.16567605		-0.00003922		 0.00000070		 0.00129188
H		-1.85592822		3.21458702		6.16570268		 0.00002847		-0.00004857		 0.00173918
H		0.95317127		1.65104713		6.16545875		 0.00002446		 0.00004312		 0.00212845
H		0.00000000		0.00000000		2.22674296		 0.00000158		 0.00000043		-0.00173824
O		-0.00002077		3.24369840		3.09983516		 0.00000298		-0.00001037		-0.00027132
O		2.80907658		1.62189687		3.09981332		-0.00000182		-0.00000337		-0.00026827
O		2.80534838		0.00007669		10.77247353		-0.00033438		 0.00000694		 0.00046295
O		-1.40268191		2.42956235		10.77250176		 0.00016802		-0.00028673		 0.00046051
O		1.40639627		2.43604303		10.77248685		 0.00016386		 0.00029204		 0.00046396
O		3.72848900		0.00005379		5.20417759		 0.00073808		-0.00001234		-0.00128705
O		-1.86415156		3.22882821		5.20444602		-0.00040267		 0.00069019		-0.00177218
O		0.94478069		1.63647892		5.20441885		-0.00035710		-0.00063678		-0.00216312
O		0.00000000		0.00002290		3.18965282		 0.00000242		 0.00000480		 0.00165152
