# total energy = -9215.21993932 eV

CRYSTAL
PRIMVEC
		5.30645862		0.00000000		0.00000000
		-2.65323197		4.59552820		0.00000000
		0.00000000		0.00000000		7.13955055
PRIMECORD
   18 1
Mg		1.75623722		0.00000000		3.29916868		-0.00026700		 0.00000091		 0.00001786
Mg		-0.87811888		1.52094627		3.29916815		 0.00013415		-0.00023168		 0.00001797
Mg		1.77511150		3.07458299		3.29916815		 0.00013285		 0.00023104		 0.00001780
Si		0.00000000		3.06368600		0.51043795		 0.00000176		 0.00000009		-0.00000196
Si		2.65323037		1.53184327		0.51043742		-0.00000168		 0.00000009		-0.00000060
H		3.45129947		0.00000000		5.22813500		-0.00007665		-0.00000005		 0.00005080
H		-1.72565000		2.98891216		5.22813819		 0.00003762		-0.00006515		 0.00003274
H		0.92757931		1.60661551		5.22812861		 0.00003911		 0.00006766		 0.00006979
H		0.00000000		0.00000000		1.19434478		-0.00000002		 0.00000009		-0.00016128
O		0.00000000		3.06368600		2.10834918		 0.00000012		-0.00000010		 0.00016378
O		2.65322984		1.53184327		2.10834918		-0.00000017		-0.00000019		 0.00016289
O		2.73121792		0.00000000		7.02902061		 0.00005697		-0.00000074		-0.00019030
O		-1.36560923		2.36530417		7.02902007		-0.00002842		 0.00004970		-0.00019089
O		1.28762061		2.23022456		7.02902007		-0.00002854		-0.00004904		-0.00018942
O		3.53236918		0.00000000		4.26666742		-0.00001501		 0.00000008		 0.00008326
O		-1.76618459		3.05912162		4.26666050		 0.00000845		-0.00001452		 0.00010348
O		0.88704578		1.53640818		4.26667168		 0.00000655		 0.00001147		 0.00006285
O		0.00000000		0.00000000		2.15475675		-0.00000008		 0.00000035		-0.00004878
