# total energy = -9214.76925323 eV

CRYSTAL
PRIMVEC
		5.21959689		0.00000000		0.00000000
		-2.60979844		4.52030378		0.00000000
		0.00000000		0.00000000		6.86706175
PRIMECORD
   18 1
Mg		1.72708856		0.00000000		3.19385929		 0.00010145		-0.00000089		-0.00054275
Mg		-0.86354428		1.49570263		3.19385929		-0.00005117		 0.00008881		-0.00054298
Mg		1.74625417		3.02460221		3.19385929		-0.00004995		-0.00008838		-0.00054275
Si		0.00000000		3.01353692		0.46077354		-0.00000185		-0.00000201		-0.00024073
Si		2.60979844		1.50676793		0.46077354		 0.00000253		 0.00000102		-0.00024155
H		3.39861309		0.00000000		5.10490734		-0.00010697		 0.00000005		 0.00070737
H		-1.69930708		2.94328645		5.10489882		 0.00005483		-0.00009499		 0.00073828
H		0.91049243		1.57701999		5.10490681		 0.00005355		 0.00009284		 0.00071020
H		0.00000000		0.00000000		1.03364339		 0.00000003		-0.00000006		 0.00058371
O		0.00000000		3.01353638		2.04423107		-0.00000020		 0.00000010		-0.00009021
O		2.60979898		1.50676846		2.04423053		-0.00000005		 0.00000023		-0.00008970
O		2.60491237		0.00000000		6.69439550		-0.00085121		 0.00000112		-0.00001438
O		-1.30245619		2.25592091		6.69439497		 0.00042559		-0.00073786		-0.00001223
O		1.30734279		2.26438446		6.69439550		 0.00042508		 0.00073754		-0.00001414
O		3.49025863		0.00000000		4.14714293		-0.00032664		-0.00000009		-0.00039777
O		-1.74512878		3.02265183		4.14715199		 0.00016151		-0.00027977		-0.00043180
O		0.86466913		1.49765194		4.14714400		 0.00016328		 0.00028258		-0.00040077
O		0.00000000		0.00000000		1.99366230		 0.00000018		-0.00000023		 0.00082220
