# total energy = -41275.0398076 eV	

CRYSTAL	
PRIMVEC	
		5.66556199		0.00000000		0.00000000	
		0.00000000		11.35884377		0.00000000	
		0.00000000		0.00000000		8.16372827	
PRIMCOORD
   56 1	
Mg		0.00000000		0.00000000		0.00000000		-0.00000000		-0.00000001		-0.00000001	
Mg		0.00000000		5.67942189		0.00000000		-0.00000000		 0.00000002		-0.00000001	
Mg		2.83278042		5.67942189		4.08186528		 0.00000002		 0.00000002		-0.00000002	
Mg		2.83278042		0.00000000		4.08186471		-0.00000002		 0.00000003		 0.00000003	
Mg		0.00000000		2.83971123		7.93507441		-0.00000001		 0.00000002		 0.00029192	
Mg		0.00000000		8.51913311		0.22865557		0.00000000		-0.00000009		-0.00029193	
Mg		2.83278042		8.51913311		3.85320914		-0.00000001		 0.00000001		 0.00029198	
Mg		2.83278042		2.83971066		4.31052027		0.00000000		-0.00000000		-0.00029190	
Mg		1.41638993		1.45168837		2.04093264		-0.00000001		-0.00070582		 0.00000001	
Mg		4.24917035		9.90715597		6.12279734		 0.00000001		 0.00070579		-0.00000002	
Mg		4.24917035		4.22773352		2.04093264		-0.00000001		 0.00070588		-0.00000000	
Mg		1.41638993		7.13111025		6.12279734		 0.00000001		-0.00070581		 0.00000002	
Mg		4.24917035		7.13111025		6.12279734		-0.00000001		-0.00070584		 0.00000003	
Mg		1.41638993		4.22773352		2.04093264		 0.00000001		 0.00070579		-0.00000002	
Mg		1.41638993		9.90715597		6.12279734		-0.00000000		 0.00070587		-0.00000001	
Mg		4.24917035		1.45168837		2.04093264		0.00000000		-0.00070581		 0.00000001	
Si		0.00000000		1.36000906		5.03837265		 0.00000011		-0.00018505		-0.00015523	
Si		0.00000000		9.99883472		3.12535733		-0.00000008		 0.00018513		 0.00015517	
Si		0.00000000		4.31941283		5.03837265		 0.00000004		 0.00018503		-0.00015518	
Si		0.00000000		7.03943094		3.12535733		-0.00000007		-0.00018507		 0.00015509	
Si		2.83277985		7.03943151		0.95650794		 0.00000009		-0.00018515		-0.00015521	
Si		2.83278042		4.31941283		7.20722204		-0.00000009		 0.00018507		 0.00015517	
Si		2.83277985		9.99883529		0.95650794		 0.00000007		 0.00018511		-0.00015515	
Si		2.83278042		1.36000906		7.20722204		-0.00000008		-0.00018505		 0.00015515	
O		0.00000000		2.83971123		1.79432273		 0.00000002		-0.00000010		-0.00022762	
O		0.00000000		8.51913311		6.36940725		-0.00000005		 0.00000005		 0.00022762	
O		2.83278042		8.51913311		5.87618744		 0.00000006		-0.00000011		-0.00022758	
O		2.83278042		2.83971123		2.28754197		-0.00000001		 0.00000009		 0.00022757	
O		0.00000000		2.83971123		5.87637034		-0.00000001		 0.00000002		 0.00072336	
O		0.00000000		8.51913311		2.28735964		 0.00000002		-0.00000002		-0.00072340	
O		2.83277985		8.51913311		1.79450506		-0.00000000		 0.00000004		 0.00072341	
O		2.83278042		2.83971123		6.36922492		0.00000000		 0.00000003		-0.00072338	
O		0.00000000		11.25899438		2.07572625		-0.00000006		 0.00004281		-0.00031427	
O		0.00000000		0.09984939		6.08800373		-0.00000005		-0.00004283		 0.00031428	
O		0.00000000		5.77927128		2.07572625		 0.00000002		-0.00004278		-0.00031423	
O		0.00000000		5.57957250		6.08800373		 0.00000007		 0.00004283		 0.00031427	
O		2.83278042		5.57957250		6.15759096		 0.00000001		 0.00004278		-0.00031429	
O		2.83277985		5.77927185		2.00613902		-0.00000003		-0.00004280		 0.00031430	
O		2.83278042		0.09984939		6.15759096		 0.00000003		-0.00004289		-0.00031426	
O		2.83278042		11.25899495		2.00613902		 0.00000003		 0.00004276		 0.00031421	
O		1.47220900		1.39770456		8.11113416		-0.00062774		 0.00006598		-0.00037747	
O		4.19335128		9.96113921		0.05259525		 0.00062775		-0.00006596		 0.00037746	
O		4.19335128		4.28171732		8.11113416		 0.00062783		-0.00006597		-0.00037741	
O		1.47220900		7.07712702		0.05259582		-0.00062782		 0.00006598		 0.00037745	
O		4.19335128		7.07712702		0.05259582		 0.00062777		 0.00006599		 0.00037746	
O		1.47220900		4.28171732		8.11113416		-0.00062778		-0.00006591		-0.00037744	
O		1.47220900		9.96113921		0.05259525		-0.00062774		-0.00006599		 0.00037745	
O		4.19335128		1.39770456		8.11113416		 0.00062773		 0.00006595		-0.00037745	
O		4.30498942		7.07712702		4.02926945		-0.00062779		 0.00006595		-0.00037745	
O		1.36057143		4.28171732		4.13446053		 0.00062773		-0.00006592		 0.00037748	
O		1.36057143		9.96113921		4.02926945		 0.00062779		-0.00006600		-0.00037745	
O		4.30498942		1.39770456		4.13446053		-0.00062781		 0.00006596		 0.00037748	
O		1.36057143		1.39770456		4.13446053		 0.00062770		 0.00006600		 0.00037751	
O		4.30498942		9.96113921		4.02926945		-0.00062774		-0.00006594		-0.00037749	
O		4.30498885		4.28171732		4.13446053		-0.00062773		-0.00006599		 0.00037745	
O		1.36057143		7.07712702		4.02926945		 0.00062780		 0.00006595		-0.00037746	
