# total energy = -41275.4973784 eV	

CRYSTAL	
PRIMVEC	
		5.71240360		0.00000000		0.00000000	
		0.00000000		11.45352981		0.00000000	
		0.00000000		0.00000000		8.25646567	
PRIMCOORD
   56 1	
Mg		0.00000000		0.00000000		0.00000000		 0.00000001		-0.00000001		-0.00000003	
Mg		0.00000000		5.72676434		0.00000000		-0.00000001		 0.00000001		-0.00000003	
Mg		2.85620237		5.72676434		4.12823283		0.00000000		 0.00000004		 0.00000003	
Mg		2.85620237		0.00000000		4.12823283		 0.00000001		0.00000000		 0.00000004	
Mg		0.00000000		2.86338217		8.01843665		-0.00000005		 0.00000002		 0.00006519	
Mg		0.00000000		8.59014651		0.23802902		 0.00000006		 0.00000002		-0.00006525	
Mg		2.85620237		8.59014651		3.89020381		-0.00000005		 0.00000003		 0.00006523	
Mg		2.85620237		2.86338217		4.36626242		 0.00000007		-0.00000003		-0.00006516	
Mg		1.42810119		1.46362982		2.06411642		-0.00000000		-0.00035619		0.00000000	
Mg		4.28430356		9.98989943		6.19234982		 0.00000001		 0.00035617		-0.00000002	
Mg		4.28430356		4.26313509		2.06411642		-0.00000001		 0.00035616		-0.00000000	
Mg		1.42810119		7.19039416		6.19234925		-0.00000004		-0.00035618		 0.00000001	
Mg		4.28430356		7.19039416		6.19234982		 0.00000004		-0.00035618		0.00000000	
Mg		1.42810119		4.26313509		2.06411642		 0.00000001		 0.00035618		-0.00000001	
Mg		1.42810119		9.98989943		6.19234925		-0.00000001		 0.00035616		-0.00000001	
Mg		4.28430356		1.46362982		2.06411642		-0.00000001		-0.00035618		 0.00000002	
Si		0.00000000		1.37207814		5.09202541		-0.00000044		 0.00007557		 0.00001567	
Si		0.00000000		10.08145054		3.16444025		 0.00000028		-0.00007576		-0.00001549	
Si		0.00000000		4.35468620		5.09202541		-0.00000042		-0.00007540		 0.00001578	
Si		0.00000000		7.09884304		3.16444025		 0.00000034		 0.00007563		-0.00001559	
Si		2.85620237		7.09884304		0.96379258		-0.00000029		 0.00007571		 0.00001550	
Si		2.85620237		4.35468620		7.29267366		 0.00000044		-0.00007553		-0.00001560	
Si		2.85620237		10.08145054		0.96379258		-0.00000036		-0.00007577		 0.00001550	
Si		2.85620237		1.37207814		7.29267309		 0.00000038		 0.00007559		-0.00001562	
O		0.00000000		2.86338217		1.80006270		 0.00000005		-0.00000004		-0.00001347	
O		0.00000000		8.59014651		6.45640354		-0.00000003		 0.00000008		 0.00001338	
O		2.85620237		8.59014651		5.92829553		 0.00000004		 0.00000002		-0.00001347	
O		2.85620237		2.86338217		2.32817071		-0.00000006		-0.00000005		 0.00001351	
O		0.00000000		2.86338217		5.92890462		 0.00000003		-0.00000008		 0.00042542	
O		0.00000000		8.59014651		2.32756104		 0.00000001		 0.00000009		-0.00042524	
O		2.85620237		8.59014651		1.80067179		-0.00000004		 0.00000003		 0.00042531	
O		2.85620237		2.86338217		6.45579445		-0.00000005		-0.00000005		-0.00042545	
O		0.00000000		11.34495311		2.10572061		-0.00000002		-0.00019044		-0.00026175	
O		0.00000000		0.10857557		6.15074562		 0.00000005		 0.00019065		 0.00026159	
O		0.00000000		5.83534048		2.10572061		-0.00000001		 0.00019061		-0.00026164	
O		0.00000000		5.61818877		6.15074562		 0.00000001		-0.00019079		 0.00026142	
O		2.85620237		5.61818877		6.23395345		-0.00000003		-0.00019067		-0.00026157	
O		2.85620237		5.83534048		2.02251279		 0.00000006		 0.00019057		 0.00026170	
O		2.85620237		0.10857557		6.23395345		-0.00000002		 0.00019064		-0.00026161	
O		2.85620237		11.34495311		2.02251279		-0.00000004		-0.00019050		 0.00026177	
O		1.48849559		1.40810248		8.20083178		-0.00023284		-0.00010582		-0.00051922	
O		4.22390915		10.04542677		0.05563446		 0.00023286		 0.00010588		 0.00051925	
O		4.22390972		4.31866186		8.20083178		 0.00023239		 0.00010586		-0.00051954	
O		1.48849502		7.13486738		0.05563389		-0.00023246		-0.00010590		 0.00051953	
O		4.22390915		7.13486681		0.05563389		 0.00023277		-0.00010585		 0.00051939	
O		1.48849559		4.31866186		8.20083178		-0.00023287		 0.00010582		-0.00051918	
O		1.48849502		10.04542620		0.05563446		-0.00023250		 0.00010589		 0.00051951	
O		4.22390972		1.40810248		8.20083178		 0.00023254		-0.00010590		-0.00051943	
O		4.34469796		7.13486681		4.07259894		-0.00023285		-0.00010588		-0.00051932	
O		1.36770735		4.31866243		4.18386729		 0.00023292		 0.00010579		 0.00051919	
O		1.36770735		10.04542620		4.07259894		 0.00023253		 0.00010592		-0.00051947	
O		4.34469739		1.40810248		4.18386729		-0.00023246		-0.00010592		 0.00051942	
O		1.36770735		1.40810248		4.18386729		 0.00023289		-0.00010585		 0.00051913	
O		4.34469739		10.04542620		4.07259894		-0.00023280		 0.00010590		-0.00051928	
O		4.34469739		4.31866186		4.18386729		-0.00023251		 0.00010586		 0.00051946	
O		1.36770735		7.13486738		4.07259894		 0.00023248		-0.00010592		-0.00051949	
