# total energy = -41274.8199216 eV	

CRYSTAL	
PRIMVEC	
		5.82367594		0.00000000		0.00000000	
		0.00000000		11.67895188		0.00000000	
		0.00000000		0.00000000		8.50900356	
PRIMCOORD
   56 1	
Mg		0.00000000		0.00000000		0.00000000		-0.00000000		-0.00000001		-0.00000001	
Mg		0.00000000		5.83947480		0.00000000		-0.00000000		 0.00000002		-0.00000001	
Mg		2.91183683		5.83947480		4.25450235		 0.00000002		-0.00000003		 0.00000001	
Mg		2.91183683		0.00000000		4.25450235		-0.00000002		 0.00000004		 0.00000002	
Mg		0.00000000		2.91973740		8.25318544		-0.00000001		-0.00000001		-0.00056172	
Mg		0.00000000		8.75921277		0.25581926		 0.00000002		 0.00000001		 0.00056177	
Mg		2.91183683		8.75921220		3.99868252		-0.00000001		 0.00000005		-0.00056170	
Mg		2.91183683		2.91973740		4.51032218		0.00000000		-0.00000004		 0.00056174	
Mg		1.45591842		1.48958159		2.12725146		 0.00000001		-0.00000163		 0.00000001	
Mg		4.36775525		10.18936858		6.38175324		-0.00000001		 0.00000162		 0.00000001	
Mg		4.36775525		4.34989378		2.12725146		-0.00000002		 0.00000163		 0.00000002	
Mg		1.45591842		7.32905639		6.38175324		 0.00000001		-0.00000159		 0.00000001	
Mg		4.36775525		7.32905639		6.38175324		-0.00000000		-0.00000159		 0.00000001	
Mg		1.45591842		4.34989378		2.12725146		 0.00000001		 0.00000161		-0.00000000	
Mg		1.45591842		10.18936858		6.38175324		 0.00000002		 0.00000162		 0.00000001	
Mg		4.36775525		1.48958159		2.12725146		-0.00000002		-0.00000163		-0.00000001	
Si		0.00000000		1.40319781		5.24031123		 0.00000001		-0.00040340		-0.00013305	
Si		0.00000000		10.27575236		3.26869347		-0.00000002		 0.00040342		 0.00013307	
Si		0.00000000		4.43627756		5.24031066		 0.00000003		 0.00040335		-0.00013301	
Si		0.00000000		7.24267261		3.26869347		-0.00000002		-0.00040335		 0.00013307	
Si		2.91183683		7.24267261		0.98580831		 0.00000002		-0.00040337		-0.00013298	
Si		2.91183683		4.43627756		7.52319639		-0.00000002		 0.00040338		 0.00013292	
Si		2.91183683		10.27575236		0.98580831		 0.00000003		 0.00040340		-0.00013298	
Si		2.91183683		1.40319724		7.52319639		-0.00000002		-0.00040342		 0.00013289	
O		0.00000000		2.91973740		1.82158215		 0.00000001		-0.00000002		 0.00003735	
O		0.00000000		8.75921277		6.68742313		 0.00000001		-0.00000000		-0.00003740	
O		2.91183683		8.75921220		6.07608393		-0.00000001		 0.00000001		 0.00003736	
O		2.91183683		2.91973740		2.43292078		0.00000000		-0.00000002		-0.00003734	
O		0.00000000		2.91973740		6.07225558		-0.00000002		0.00000000		 0.00014095	
O		0.00000000		8.75921220		2.43674913		 0.00000002		 0.00000005		-0.00014095	
O		2.91183683		8.75921277		1.81775266		-0.00000001		-0.00000002		 0.00014090	
O		2.91183683		2.91973740		6.69125205		 0.00000001		 0.00000001		-0.00014088	
O		0.00000000		11.54696006		2.18946517		 0.00000001		 0.00024798		 0.00014529	
O		0.00000000		0.13198954		6.31953953		-0.00000001		-0.00024791		-0.00014535	
O		0.00000000		5.97146491		2.18946517		 0.00000002		-0.00024793		 0.00014534	
O		0.00000000		5.70748526		6.31953953		-0.00000002		 0.00024785		-0.00014540	
O		2.91183683		5.70748526		6.44396809		 0.00000004		 0.00024785		 0.00014531	
O		2.91183683		5.97146491		2.06503661		-0.00000002		-0.00024790		-0.00014528	
O		2.91183683		0.13198954		6.44396809		-0.00000001		-0.00024783		 0.00014536	
O		2.91183683		11.54696063		2.06503661		-0.00000000		 0.00024790		-0.00014531	
O		1.52753634		1.43295742		8.44120715		 0.00008234		-0.00038235		 0.00016054	
O		4.29613675		10.24599275		0.06779755		-0.00008233		 0.00038228		-0.00016057	
O		4.29613675		4.40651738		8.44120715		-0.00008229		 0.00038231		 0.00016050	
O		1.52753691		7.27243222		0.06779755		 0.00008226		-0.00038225		-0.00016052	
O		4.29613675		7.27243222		0.06779755		-0.00008227		-0.00038230		-0.00016056	
O		1.52753691		4.40651738		8.44120772		 0.00008224		 0.00038230		 0.00016052	
O		1.52753691		10.24599275		0.06779755		 0.00008232		 0.00038227		-0.00016055	
O		4.29613675		1.43295742		8.44120715		-0.00008229		-0.00038229		 0.00016054	
O		4.43937318		7.27243222		4.18670423		 0.00008240		-0.00038231		 0.00016059	
O		1.38429992		4.40651795		4.32229991		-0.00008236		 0.00038238		-0.00016053	
O		1.38429992		10.24599275		4.18670480		-0.00008233		 0.00038227		 0.00016055	
O		4.43937318		1.43295742		4.32229991		 0.00008234		-0.00038233		-0.00016054	
O		1.38429992		1.43295742		4.32229991		-0.00008232		-0.00038235		-0.00016057	
O		4.43937318		10.24599275		4.18670480		 0.00008236		 0.00038229		 0.00016057	
O		4.43937318		4.40651795		4.32229991		 0.00008234		 0.00038235		-0.00016055	
O		1.38430049		7.27243222		4.18670423		-0.00008243		-0.00038230		 0.00016056	
