# total energy = -92492.9789788 eV

CRYSTAL
PRIMVEC
		18.49999946		0.00000000		0.00000000
		0.00000000		17.89998897		0.00000000
		0.00000000		0.00000000		5.00650685
PRIMECORD
   164 1
Mg		2.40499993		3.04299831		1.90246964		 0.00007586		 0.00007388		-0.00036161
Mg		16.09499953		14.85699066		3.10402981		-0.00007586		-0.00007388		 0.00036161
Mg		6.84499980		14.85699066		4.40571937		-0.00007586		-0.00007388		-0.00036161
Mg		11.65499966		3.04299831		0.60078008		 0.00007586		 0.00007388		 0.00036161
Mg		16.09499953		11.99299280		3.10402981		-0.00007586		 0.00007388		 0.00036161
Mg		2.40499993		5.90699618		1.90246964		 0.00007586		-0.00007388		-0.00036161
Mg		11.65499966		5.90699618		0.60078008		 0.00007586		-0.00007388		 0.00036161
Mg		6.84499980		11.99299280		4.40571937		-0.00007586		 0.00007388		-0.00036161
Mg		2.40499993		1.43199986		4.35565467		-0.00041867		 0.00003330		 0.00020147
Mg		16.09499953		16.46799097		0.65084478		 0.00041867		-0.00003330		-0.00020147
Mg		6.84499980		16.46799097		1.85240495		 0.00041867		-0.00003330		 0.00020147
Mg		11.65499966		1.43199986		3.15409451		-0.00041867		 0.00003330		-0.00020147
Mg		16.09499953		10.38199435		0.65084478		 0.00041867		 0.00003330		-0.00020147
Mg		2.40499993		7.51799648		4.35565467		-0.00041867		-0.00003330		 0.00020147
Mg		11.65499966		7.51799648		3.15409451		-0.00041867		-0.00003330		-0.00020147
Mg		6.84499980		10.38199435		1.85240495		 0.00041867		 0.00003330		 0.00020147
Mg		2.40499993		17.54198994		1.90246964		-0.00047804		 0.00020459		-0.00029715
Mg		16.09499953		0.35800089		3.10402981		 0.00047804		-0.00020459		 0.00029715
Mg		6.84499980		0.35800089		4.40571937		 0.00047804		-0.00020459		-0.00029715
Mg		11.65499966		17.54198994		0.60078008		-0.00047804		 0.00020459		 0.00029715
Mg		16.09499953		8.59199545		3.10402981		 0.00047804		 0.00020459		 0.00029715
Mg		2.40499993		9.30799538		1.90246964		-0.00047804		-0.00020459		-0.00029715
Mg		11.65499966		9.30799538		0.60078008		-0.00047804		-0.00020459		 0.00029715
Mg		6.84499980		8.59199545		4.40571937		 0.00047804		 0.00020459		-0.00029715
Mg		2.40499993		4.47499817		4.35565467		 0.00014353		0.00000000		-0.00017949
Mg		16.09499953		13.42499266		0.65084478		-0.00014353		0.00000000		 0.00017949
Mg		6.84499980		13.42499266		1.85240495		-0.00014353		0.00000000		-0.00017949
Mg		11.65499966		4.47499817		3.15409451		 0.00014353		0.00000000		 0.00017949
Si		0.55499998		14.67799207		1.45188551		 0.00021296		 0.00007285		 0.00048098
Si		17.94500132		3.22199876		3.55461580		-0.00021296		-0.00007285		-0.00048098
Si		8.69499974		3.22199876		3.95513523		-0.00021296		-0.00007285		 0.00048098
Si		9.80499786		14.67799207		1.05136422		 0.00021296		 0.00007285		-0.00048098
Si		17.94500132		5.72799758		3.55461580		-0.00021296		 0.00007285		-0.00048098
Si		0.55499998		12.17199324		1.45188551		 0.00021296		-0.00007285		 0.00048098
Si		9.80499786		12.17199324		1.05136422		 0.00021296		-0.00007285		-0.00048098
Si		8.69499974		5.72799758		3.95513523		-0.00021296		 0.00007285		 0.00048098
Si		0.55499998		16.46799097		3.95513523		-0.00001248		 0.00036466		-0.00013020
Si		17.94500132		1.43199986		1.05136422		 0.00001248		-0.00036466		 0.00013020
Si		8.69499974		1.43199986		1.45188551		 0.00001248		-0.00036466		-0.00013020
Si		9.80499786		16.46799097		3.55461580		-0.00001248		 0.00036466		 0.00013020
Si		17.94500132		7.51799648		1.05136422		 0.00001248		 0.00036466		 0.00013020
Si		0.55499998		10.38199435		3.95513523		-0.00001248		-0.00036466		-0.00013020
Si		9.80499786		10.38199435		3.55461580		-0.00001248		-0.00036466		 0.00013020
Si		8.69499974		7.51799648		1.45188551		 0.00001248		 0.00036466		-0.00013020
Si		4.06999988		16.46799097		0.20026064		-0.00005585		-0.00018746		-0.00024257
Si		14.42999773		1.43199986		4.80624066		 0.00005585		 0.00018746		 0.00024257
Si		5.17999985		1.43199986		2.70351037		 0.00005585		 0.00018746		-0.00024257
Si		13.32000146		16.46799097		2.30298908		-0.00005585		-0.00018746		 0.00024257
Si		14.42999773		7.51799648		4.80624066		 0.00005585		-0.00018746		 0.00024257
Si		4.06999988		10.38199435		0.20026064		-0.00005585		 0.00018746		-0.00024257
Si		13.32000146		10.38199435		2.30298908		-0.00005585		 0.00018746		 0.00024257
Si		5.17999985		7.51799648		2.70351037		 0.00005585		-0.00018746		-0.00024257
Si		4.06999988		14.67799207		2.70351037		 0.00000005		 0.00001660		-0.00017134
Si		14.42999773		3.22199876		2.30298908		-0.00000005		-0.00001660		 0.00017134
Si		5.17999985		3.22199876		0.20026064		-0.00000005		-0.00001660		-0.00017134
Si		13.32000146		14.67799207		4.80624066		 0.00000005		 0.00001660		 0.00017134
Si		14.42999773		5.72799758		2.30298908		-0.00000005		 0.00001660		 0.00017134
Si		4.06999988		12.17199324		2.70351037		 0.00000005		-0.00001660		-0.00017134
Si		13.32000146		12.17199324		4.80624066		 0.00000005		-0.00001660		 0.00017134
Si		5.17999985		5.72799758		0.20026064		-0.00000005		 0.00001660		-0.00017134
O		1.10999997		1.25299941		1.00129952		 0.00016718		 0.00003604		-0.00011805
O		17.38999949		16.64699141		4.00519993		-0.00016718		-0.00003604		 0.00011805
O		8.13999976		16.64699141		3.50454925		-0.00016718		-0.00003604		-0.00011805
O		10.35999970		1.25299941		1.50195021		 0.00016718		 0.00003604		 0.00011805
O		17.38999949		10.20299390		4.00519993		-0.00016718		 0.00003604		 0.00011805
O		1.10999997		7.69699507		1.00129952		 0.00016718		-0.00003604		-0.00011805
O		10.35999970		7.69699507		1.50195021		 0.00016718		-0.00003604		 0.00011805
O		8.13999976		10.20299390		3.50454925		-0.00016718		 0.00003604		-0.00011805
O		1.10999997		3.22199876		3.50454925		 0.00000998		 0.00031711		-0.00046990
O		17.38999949		14.67799207		1.50195021		-0.00000998		-0.00031711		 0.00046990
O		8.13999976		14.67799207		1.00129952		-0.00000998		-0.00031711		-0.00046990
O		10.35999970		3.22199876		4.00519993		 0.00000998		 0.00031711		 0.00046990
O		17.38999949		12.17199324		1.50195021		-0.00000998		 0.00031711		 0.00046990
O		1.10999997		5.72799758		3.50454925		 0.00000998		-0.00031711		-0.00046990
O		10.35999970		5.72799758		4.00519993		 0.00000998		-0.00031711		 0.00046990
O		8.13999976		12.17199324		1.00129952		-0.00000998		 0.00031711		-0.00046990
O		1.10999997		13.42499266		1.00129952		 0.00028729		-0.00000000		 0.00033072
O		17.38999949		4.47499817		4.00519993		-0.00028729		0.00000000		-0.00033072
O		8.13999976		4.47499817		3.50454925		-0.00028729		0.00000000		 0.00033072
O		10.35999970		13.42499266		1.50195021		 0.00028729		0.00000000		-0.00033072
O		1.10999997		4.47499817		1.00129952		 0.00004332		0.00000000		-0.00012116
O		17.38999949		13.42499266		4.00519993		-0.00004332		0.00000000		 0.00012116
O		8.13999976		13.42499266		3.50454925		-0.00004332		0.00000000		-0.00012116
O		10.35999970		4.47499817		1.50195021		 0.00004332		0.00000000		 0.00012116
O		1.10999997		0.00000000		3.50454925		-0.00048480		 0.00064744		 0.00002700
O		17.38999949		0.00000000		1.50195021		 0.00048480		-0.00064744		-0.00002700
O		8.13999976		0.00000000		1.00129952		 0.00048480		-0.00064744		 0.00002700
O		10.35999970		0.00000000		4.00519993		-0.00048480		 0.00064744		-0.00002700
O		17.38999949		8.94999449		1.50195021		 0.00048480		 0.00064744		-0.00002700
O		1.10999997		8.94999449		3.50454925		-0.00048480		-0.00064744		 0.00002700
O		10.35999970		8.94999449		4.00519993		-0.00048480		-0.00064744		-0.00002700
O		8.13999976		8.94999449		1.00129952		 0.00048480		 0.00064744		 0.00002700
O		0.92499997		15.57299059		0.25032534		-0.00031596		-0.00005430		 0.00021470
O		17.57499948		2.32699838		4.75617411		 0.00031596		 0.00005430		-0.00021470
O		8.32499976		2.32699838		2.75357507		 0.00031596		 0.00005430		 0.00021470
O		10.17499970		15.57299059		2.25292438		-0.00031596		-0.00005430		-0.00021470
O		17.57499948		6.62299611		4.75617411		 0.00031596		-0.00005430		-0.00021470
O		0.92499997		11.27699287		0.25032534		-0.00031596		 0.00005430		 0.00021470
O		10.17499970		11.27699287		2.25292438		-0.00031596		 0.00005430		-0.00021470
O		8.32499976		6.62299611		2.75357507		 0.00031596		-0.00005430		 0.00021470
O		0.92499997		15.57299059		2.70351037		 0.00037721		 0.00021092		 0.00034542
O		17.57499948		2.32699838		2.30298908		-0.00037721		-0.00021092		-0.00034542
O		8.32499976		2.32699838		0.20026064		-0.00037721		-0.00021092		 0.00034542
O		10.17499970		15.57299059		4.80624066		 0.00037721		 0.00021092		-0.00034542
O		17.57499948		6.62299611		2.30298908		-0.00037721		 0.00021092		-0.00034542
O		0.92499997		11.27699287		2.70351037		 0.00037721		-0.00021092		 0.00034542
O		10.17499970		11.27699287		4.80624066		 0.00037721		-0.00021092		-0.00034542
O		8.32499976		6.62299611		0.20026064		-0.00037721		 0.00021092		 0.00034542
O		3.51499990		3.22199876		0.25032534		-0.00029383		 0.00000648		-0.00072698
O		14.98499956		14.67799207		4.75617411		 0.00029383		-0.00000648		 0.00072698
O		5.73499983		14.67799207		2.75357507		 0.00029383		-0.00000648		-0.00072698
O		12.76499963		3.22199876		2.25292438		-0.00029383		 0.00000648		 0.00072698
O		14.98499956		12.17199324		4.75617411		 0.00029383		 0.00000648		 0.00072698
O		3.51499990		5.72799758		0.25032534		-0.00029383		-0.00000648		-0.00072698
O		12.76499963		5.72799758		2.25292438		-0.00029383		-0.00000648		 0.00072698
O		5.73499983		12.17199324		2.75357507		 0.00029383		 0.00000648		-0.00072698
O		3.51499990		1.25299941		2.80363977		-0.00001657		 0.00070150		-0.00025789
O		14.98499956		16.64699141		2.20285969		 0.00001657		-0.00070150		 0.00025789
O		5.73499983		16.64699141		0.30039004		 0.00001657		-0.00070150		-0.00025789
O		12.76499963		1.25299941		4.70610941		-0.00001657		 0.00070150		 0.00025789
O		14.98499956		10.20299390		2.20285969		 0.00001657		 0.00070150		 0.00025789
O		3.51499990		7.69699507		2.80363977		-0.00001657		-0.00070150		-0.00025789
O		12.76499963		7.69699507		4.70610941		-0.00001657		-0.00070150		 0.00025789
O		5.73499983		10.20299390		0.30039004		 0.00001657		 0.00070150		-0.00025789
O		3.51499990		0.00000000		0.25032534		-0.00060084		 0.00000531		 0.00023387
O		14.98499956		0.00000000		4.75617411		 0.00060084		-0.00000531		-0.00023387
O		5.73499983		0.00000000		2.75357507		 0.00060084		-0.00000531		 0.00023387
O		12.76499963		0.00000000		2.25292438		-0.00060084		 0.00000531		-0.00023387
O		14.98499956		8.94999449		4.75617411		 0.00060084		 0.00000531		-0.00023387
O		3.51499990		8.94999449		0.25032534		-0.00060084		-0.00000531		 0.00023387
O		12.76499963		8.94999449		2.25292438		-0.00060084		-0.00000531		-0.00023387
O		5.73499983		8.94999449		2.75357507		 0.00060084		 0.00000531		 0.00023387
O		3.51499990		13.42499266		2.25292438		 0.00049951		0.00000000		-0.00022544
O		14.98499956		4.47499817		2.75357507		-0.00049951		0.00000000		 0.00022544
O		5.73499983		4.47499817		4.75617411		-0.00049951		0.00000000		-0.00022544
O		12.76499963		13.42499266		0.25032534		 0.00049951		0.00000000		 0.00022544
O		3.51499990		4.47499817		2.75357507		-0.00066361		0.00000000		 0.00067417
O		14.98499956		13.42499266		2.25292438		 0.00066361		0.00000000		-0.00067417
O		5.73499983		13.42499266		0.25032534		 0.00066361		-0.00000000		 0.00067417
O		12.76499963		4.47499817		4.75617411		-0.00066361		0.00000000		-0.00067417
O		3.69999989		15.57299059		1.50195021		 0.00010197		 0.00010004		-0.00010208
O		14.79999957		2.32699838		3.50454925		-0.00010197		-0.00010004		 0.00010208
O		5.54999984		2.32699838		4.00519993		-0.00010197		-0.00010004		-0.00010208
O		12.94999962		15.57299059		1.00129952		 0.00010197		 0.00010004		 0.00010208
O		14.79999957		6.62299611		3.50454925		-0.00010197		 0.00010004		 0.00010208
O		3.69999989		11.27699287		1.50195021		 0.00010197		-0.00010004		-0.00010208
O		12.94999962		11.27699287		1.00129952		 0.00010197		-0.00010004		 0.00010208
O		5.54999984		6.62299611		4.00519993		-0.00010197		 0.00010004		-0.00010208
O		3.69999989		15.57299059		4.00519993		-0.00017593		-0.00015532		 0.00020385
O		14.79999957		2.32699838		1.00129952		 0.00017593		 0.00015532		-0.00020385
O		5.54999984		2.32699838		1.50195021		 0.00017593		 0.00015532		 0.00020385
O		12.94999962		15.57299059		3.50454925		-0.00017593		-0.00015532		-0.00020385
O		14.79999957		6.62299611		1.00129952		 0.00017593		-0.00015532		-0.00020385
O		3.69999989		11.27699287		4.00519993		-0.00017593		 0.00015532		 0.00020385
O		12.94999962		11.27699287		3.50454925		-0.00017593		 0.00015532		-0.00020385
O		5.54999984		6.62299611		1.50195021		 0.00017593		-0.00015532		 0.00020385
H		17.94500132		0.00000000		0.75097418		-0.00035537		 0.00030611		-0.00003580
H		0.55499813		0.00000000		4.25552528		 0.00035537		-0.00030611		 0.00003580
H		9.80499786		0.00000000		3.25422575		 0.00035537		-0.00030611		-0.00003580
H		8.69500159		0.00000000		1.75227555		-0.00035537		 0.00030611		 0.00003580
H		0.55499813		8.94999449		4.25552528		 0.00035537		 0.00030611		 0.00003580
H		17.94500132		8.94999449		0.75097418		-0.00035537		-0.00030611		-0.00003580
H		8.69500159		8.94999449		1.75227555		-0.00035537		-0.00030611		 0.00003580
H		9.80499786		8.94999449		3.25422575		 0.00035537		 0.00030611		-0.00003580
