# total energy = -92497.0817549 eV

CRYSTAL
PRIMVEC
		18.49999946		0.00000000		0.00000000
		0.00000000		17.89998897		0.00000000
		0.00000000		0.00000000		5.53349784
PRIMECORD
   164 1
Mg		2.40499993		3.04299831		2.10273029		-0.00037243		 0.00028612		-0.00028543
Mg		16.09499953		14.85699066		3.43076940		 0.00037243		-0.00028612		 0.00028543
Mg		6.84499980		14.85699066		4.86947921		 0.00037243		-0.00028612		-0.00028543
Mg		11.65499966		3.04299831		0.66402048		-0.00037243		 0.00028612		 0.00028543
Mg		16.09499953		11.99299280		3.43076940		 0.00037243		 0.00028612		 0.00028543
Mg		2.40499993		5.90699618		2.10273029		-0.00037243		-0.00028612		-0.00028543
Mg		11.65499966		5.90699618		0.66402048		-0.00037243		-0.00028612		 0.00028543
Mg		6.84499980		11.99299280		4.86947921		 0.00037243		 0.00028612		-0.00028543
Mg		2.40499993		1.43199986		4.81414571		 0.00020862		-0.00014218		 0.00043447
Mg		16.09499953		16.46799097		0.71935583		-0.00020862		 0.00014218		-0.00043447
Mg		6.84499980		16.46799097		2.04739494		-0.00020862		 0.00014218		 0.00043447
Mg		11.65499966		1.43199986		3.48610475		 0.00020862		-0.00014218		-0.00043447
Mg		16.09499953		10.38199435		0.71935583		-0.00020862		-0.00014218		-0.00043447
Mg		2.40499993		7.51799648		4.81414571		 0.00020862		 0.00014218		 0.00043447
Mg		11.65499966		7.51799648		3.48610475		 0.00020862		 0.00014218		-0.00043447
Mg		6.84499980		10.38199435		2.04739494		-0.00020862		-0.00014218		 0.00043447
Mg		2.40499993		17.54198994		2.10273029		-0.00034686		 0.00018821		 0.00029138
Mg		16.09499953		0.35800089		3.43076940		 0.00034686		-0.00018821		-0.00029138
Mg		6.84499980		0.35800089		4.86947921		 0.00034686		-0.00018821		 0.00029138
Mg		11.65499966		17.54198994		0.66402048		-0.00034686		 0.00018821		-0.00029138
Mg		16.09499953		8.59199545		3.43076940		 0.00034686		 0.00018821		-0.00029138
Mg		2.40499993		9.30799538		2.10273029		-0.00034686		-0.00018821		 0.00029138
Mg		11.65499966		9.30799538		0.66402048		-0.00034686		-0.00018821		-0.00029138
Mg		6.84499980		8.59199545		4.86947921		 0.00034686		 0.00018821		 0.00029138
Mg		2.40499993		4.47499817		4.81414571		-0.00024795		0.00000000		 0.00078745
Mg		16.09499953		13.42499266		0.71935583		 0.00024795		0.00000000		-0.00078745
Mg		6.84499980		13.42499266		2.04739494		 0.00024795		0.00000000		 0.00078745
Mg		11.65499966		4.47499817		3.48610475		-0.00024795		0.00000000		-0.00078745
Si		0.55499998		14.67799207		1.60471585		-0.00004762		-0.00000708		 0.00016760
Si		17.94500132		3.22199876		3.92878568		 0.00004762		 0.00000708		-0.00016760
Si		8.69499974		3.22199876		4.37146477		 0.00004762		 0.00000708		 0.00016760
Si		9.80499786		14.67799207		1.16203492		-0.00004762		-0.00000708		-0.00016760
Si		17.94500132		5.72799758		3.92878568		 0.00004762		-0.00000708		-0.00016760
Si		0.55499998		12.17199324		1.60471585		-0.00004762		 0.00000708		 0.00016760
Si		9.80499786		12.17199324		1.16203492		-0.00004762		 0.00000708		-0.00016760
Si		8.69499974		5.72799758		4.37146477		 0.00004762		-0.00000708		 0.00016760
Si		0.55499998		16.46799097		4.37146477		-0.00019609		-0.00039359		 0.00000505
Si		17.94500132		1.43199986		1.16203492		 0.00019609		 0.00039359		-0.00000505
Si		8.69499974		1.43199986		1.60471585		 0.00019609		 0.00039359		 0.00000505
Si		9.80499786		16.46799097		3.92878568		-0.00019609		-0.00039359		-0.00000505
Si		17.94500132		7.51799648		1.16203492		 0.00019609		-0.00039359		-0.00000505
Si		0.55499998		10.38199435		4.37146477		-0.00019609		 0.00039359		 0.00000505
Si		9.80499786		10.38199435		3.92878568		-0.00019609		 0.00039359		-0.00000505
Si		8.69499974		7.51799648		1.60471585		 0.00019609		-0.00039359		 0.00000505
Si		4.06999988		16.46799097		0.22133954		-0.00015996		 0.00007067		 0.00023520
Si		14.42999773		1.43199986		5.31216014		 0.00015996		-0.00007067		-0.00023520
Si		5.17999985		1.43199986		2.98809031		 0.00015996		-0.00007067		 0.00023520
Si		13.32000146		16.46799097		2.54540938		-0.00015996		 0.00007067		-0.00023520
Si		14.42999773		7.51799648		5.31216014		 0.00015996		 0.00007067		-0.00023520
Si		4.06999988		10.38199435		0.22133954		-0.00015996		-0.00007067		 0.00023520
Si		13.32000146		10.38199435		2.54540938		-0.00015996		-0.00007067		-0.00023520
Si		5.17999985		7.51799648		2.98809031		 0.00015996		 0.00007067		 0.00023520
Si		4.06999988		14.67799207		2.98809031		 0.00018690		-0.00009106		-0.00003847
Si		14.42999773		3.22199876		2.54540938		-0.00018690		 0.00009106		 0.00003847
Si		5.17999985		3.22199876		0.22133954		-0.00018690		 0.00009106		-0.00003847
Si		13.32000146		14.67799207		5.31216014		 0.00018690		-0.00009106		 0.00003847
Si		14.42999773		5.72799758		2.54540938		-0.00018690		-0.00009106		 0.00003847
Si		4.06999988		12.17199324		2.98809031		 0.00018690		 0.00009106		-0.00003847
Si		13.32000146		12.17199324		5.31216014		 0.00018690		 0.00009106		 0.00003847
Si		5.17999985		5.72799758		0.22133954		-0.00018690		-0.00009106		-0.00003847
O		1.10999997		1.25299941		1.10669957		 0.00022959		-0.00000950		-0.00000075
O		17.38999949		16.64699141		4.42680012		-0.00022959		 0.00000950		 0.00000075
O		8.13999976		16.64699141		3.87345034		-0.00022959		 0.00000950		-0.00000075
O		10.35999970		1.25299941		1.66004935		 0.00022959		-0.00000950		 0.00000075
O		17.38999949		10.20299390		4.42680012		-0.00022959		-0.00000950		 0.00000075
O		1.10999997		7.69699507		1.10669957		 0.00022959		 0.00000950		-0.00000075
O		10.35999970		7.69699507		1.66004935		 0.00022959		 0.00000950		 0.00000075
O		8.13999976		10.20299390		3.87345034		-0.00022959		-0.00000950		-0.00000075
O		1.10999997		3.22199876		3.87345034		-0.00000704		-0.00024661		 0.00030410
O		17.38999949		14.67799207		1.66004935		 0.00000704		 0.00024661		-0.00030410
O		8.13999976		14.67799207		1.10669957		 0.00000704		 0.00024661		 0.00030410
O		10.35999970		3.22199876		4.42680012		-0.00000704		-0.00024661		-0.00030410
O		17.38999949		12.17199324		1.66004935		 0.00000704		-0.00024661		-0.00030410
O		1.10999997		5.72799758		3.87345034		-0.00000704		 0.00024661		 0.00030410
O		10.35999970		5.72799758		4.42680012		-0.00000704		 0.00024661		-0.00030410
O		8.13999976		12.17199324		1.10669957		 0.00000704		-0.00024661		 0.00030410
O		1.10999997		13.42499266		1.10669957		-0.00034358		0.00000000		-0.00051396
O		17.38999949		4.47499817		4.42680012		 0.00034358		-0.00000000		 0.00051396
O		8.13999976		4.47499817		3.87345034		 0.00034358		0.00000000		-0.00051396
O		10.35999970		13.42499266		1.66004935		-0.00034358		0.00000000		 0.00051396
O		1.10999997		4.47499817		1.10669957		-0.00016225		0.00000000		-0.00068139
O		17.38999949		13.42499266		4.42680012		 0.00016225		0.00000000		 0.00068139
O		8.13999976		13.42499266		3.87345034		 0.00016225		0.00000000		-0.00068139
O		10.35999970		4.47499817		1.66004935		-0.00016225		0.00000000		 0.00068139
O		1.10999997		0.00000000		3.87345034		-0.00027866		-0.00031306		-0.00069391
O		17.38999949		0.00000000		1.66004935		 0.00027866		 0.00031306		 0.00069391
O		8.13999976		0.00000000		1.10669957		 0.00027866		 0.00031306		-0.00069391
O		10.35999970		0.00000000		4.42680012		-0.00027866		-0.00031306		 0.00069391
O		17.38999949		8.94999449		1.66004935		 0.00027866		-0.00031306		 0.00069391
O		1.10999997		8.94999449		3.87345034		-0.00027866		 0.00031306		-0.00069391
O		10.35999970		8.94999449		4.42680012		-0.00027866		 0.00031306		 0.00069391
O		8.13999976		8.94999449		1.10669957		 0.00027866		-0.00031306		-0.00069391
O		0.92499997		15.57299059		0.27667489		-0.00036367		-0.00026562		-0.00000295
O		17.57499948		2.32699838		5.25682480		 0.00036367		 0.00026562		 0.00000295
O		8.32499976		2.32699838		3.04342566		 0.00036367		 0.00026562		-0.00000295
O		10.17499970		15.57299059		2.49007403		-0.00036367		-0.00026562		 0.00000295
O		17.57499948		6.62299611		5.25682480		 0.00036367		-0.00026562		 0.00000295
O		0.92499997		11.27699287		0.27667489		-0.00036367		 0.00026562		-0.00000295
O		10.17499970		11.27699287		2.49007403		-0.00036367		 0.00026562		 0.00000295
O		8.32499976		6.62299611		3.04342566		 0.00036367		-0.00026562		-0.00000295
O		0.92499997		15.57299059		2.98809031		-0.00007988		-0.00018337		 0.00006065
O		17.57499948		2.32699838		2.54540938		 0.00007988		 0.00018337		-0.00006065
O		8.32499976		2.32699838		0.22133954		 0.00007988		 0.00018337		 0.00006065
O		10.17499970		15.57299059		5.31216014		-0.00007988		-0.00018337		-0.00006065
O		17.57499948		6.62299611		2.54540938		 0.00007988		-0.00018337		-0.00006065
O		0.92499997		11.27699287		2.98809031		-0.00007988		 0.00018337		 0.00006065
O		10.17499970		11.27699287		5.31216014		-0.00007988		 0.00018337		-0.00006065
O		8.32499976		6.62299611		0.22133954		 0.00007988		-0.00018337		 0.00006065
O		3.51499990		3.22199876		0.27667489		-0.00024291		-0.00014434		-0.00094380
O		14.98499956		14.67799207		5.25682480		 0.00024291		 0.00014434		 0.00094380
O		5.73499983		14.67799207		3.04342566		 0.00024291		 0.00014434		-0.00094380
O		12.76499963		3.22199876		2.49007403		-0.00024291		-0.00014434		 0.00094380
O		14.98499956		12.17199324		5.25682480		 0.00024291		-0.00014434		 0.00094380
O		3.51499990		5.72799758		0.27667489		-0.00024291		 0.00014434		-0.00094380
O		12.76499963		5.72799758		2.49007403		-0.00024291		 0.00014434		 0.00094380
O		5.73499983		12.17199324		3.04342566		 0.00024291		-0.00014434		-0.00094380
O		3.51499990		1.25299941		3.09875916		 0.00013946		 0.00019337		 0.00036979
O		14.98499956		16.64699141		2.43474053		-0.00013946		-0.00019337		-0.00036979
O		5.73499983		16.64699141		0.33201024		-0.00013946		-0.00019337		 0.00036979
O		12.76499963		1.25299941		5.20148945		 0.00013946		 0.00019337		-0.00036979
O		14.98499956		10.20299390		2.43474053		-0.00013946		 0.00019337		-0.00036979
O		3.51499990		7.69699507		3.09875916		 0.00013946		-0.00019337		 0.00036979
O		12.76499963		7.69699507		5.20148945		 0.00013946		-0.00019337		-0.00036979
O		5.73499983		10.20299390		0.33201024		-0.00013946		 0.00019337		 0.00036979
O		3.51499990		0.00000000		0.27667489		-0.00017111		 0.00000814		 0.00023484
O		14.98499956		0.00000000		5.25682480		 0.00017111		-0.00000814		-0.00023484
O		5.73499983		0.00000000		3.04342566		 0.00017111		-0.00000814		 0.00023484
O		12.76499963		0.00000000		2.49007403		-0.00017111		 0.00000814		-0.00023484
O		14.98499956		8.94999449		5.25682480		 0.00017111		 0.00000814		-0.00023484
O		3.51499990		8.94999449		0.27667489		-0.00017111		-0.00000814		 0.00023484
O		12.76499963		8.94999449		2.49007403		-0.00017111		-0.00000814		-0.00023484
O		5.73499983		8.94999449		3.04342566		 0.00017111		 0.00000814		 0.00023484
O		3.51499990		13.42499266		2.49007403		-0.00029899		-0.00000000		-0.00051916
O		14.98499956		4.47499817		3.04342566		 0.00029899		0.00000000		 0.00051916
O		5.73499983		4.47499817		5.25682480		 0.00029899		0.00000000		-0.00051916
O		12.76499963		13.42499266		0.27667489		-0.00029899		-0.00000000		 0.00051916
O		3.51499990		4.47499817		3.04342566		-0.00006939		0.00000000		 0.00083942
O		14.98499956		13.42499266		2.49007403		 0.00006939		0.00000000		-0.00083942
O		5.73499983		13.42499266		0.27667489		 0.00006939		0.00000000		 0.00083942
O		12.76499963		4.47499817		5.25682480		-0.00006939		0.00000000		-0.00083942
O		3.69999989		15.57299059		1.66004935		 0.00004574		-0.00009414		 0.00018587
O		14.79999957		2.32699838		3.87345034		-0.00004574		 0.00009414		-0.00018587
O		5.54999984		2.32699838		4.42680012		-0.00004574		 0.00009414		 0.00018587
O		12.94999962		15.57299059		1.10669957		 0.00004574		-0.00009414		-0.00018587
O		14.79999957		6.62299611		3.87345034		-0.00004574		-0.00009414		-0.00018587
O		3.69999989		11.27699287		1.66004935		 0.00004574		 0.00009414		 0.00018587
O		12.94999962		11.27699287		1.10669957		 0.00004574		 0.00009414		-0.00018587
O		5.54999984		6.62299611		4.42680012		-0.00004574		-0.00009414		 0.00018587
O		3.69999989		15.57299059		4.42680012		 0.00000494		-0.00040969		 0.00013255
O		14.79999957		2.32699838		1.10669957		-0.00000494		 0.00040969		-0.00013255
O		5.54999984		2.32699838		1.66004935		-0.00000494		 0.00040969		 0.00013255
O		12.94999962		15.57299059		3.87345034		 0.00000494		-0.00040969		-0.00013255
O		14.79999957		6.62299611		1.10669957		-0.00000494		-0.00040969		-0.00013255
O		3.69999989		11.27699287		4.42680012		 0.00000494		 0.00040969		 0.00013255
O		12.94999962		11.27699287		3.87345034		 0.00000494		 0.00040969		-0.00013255
O		5.54999984		6.62299611		1.66004935		-0.00000494		-0.00040969		 0.00013255
H		17.94500132		0.00000000		0.83002468		-0.00008277		 0.00004946		-0.00008758
H		0.55499813		0.00000000		4.70347501		 0.00008277		-0.00004946		 0.00008758
H		9.80499786		0.00000000		3.59677544		 0.00008277		-0.00004946		-0.00008758
H		8.69500159		0.00000000		1.93672424		-0.00008277		 0.00004946		 0.00008758
H		0.55499813		8.94999449		4.70347501		 0.00008277		 0.00004946		 0.00008758
H		17.94500132		8.94999449		0.83002468		-0.00008277		-0.00004946		-0.00008758
H		8.69500159		8.94999449		1.93672424		-0.00008277		-0.00004946		 0.00008758
H		9.80499786		8.94999449		3.59677544		 0.00008277		 0.00004946		-0.00008758
