# total energy = -92498.0920605 eV

CRYSTAL
PRIMVEC
		18.49999946		0.00000000		0.00000000
		0.00000000		17.89998897		0.00000000
		0.00000000		0.00000000		5.40174084
PRIMECORD
   164 1
Mg		2.40499993		3.04299831		2.05266559		 0.00002070		-0.00022688		-0.00026706
Mg		16.09499953		14.85699066		3.34908450		-0.00002070		 0.00022688		 0.00026706
Mg		6.84499980		14.85699066		4.75353971		-0.00002070		 0.00022688		-0.00026706
Mg		11.65499966		3.04299831		0.64821038		 0.00002070		-0.00022688		 0.00026706
Mg		16.09499953		11.99299280		3.34908450		-0.00002070		-0.00022688		 0.00026706
Mg		2.40499993		5.90699618		2.05266559		 0.00002070		 0.00022688		-0.00026706
Mg		11.65499966		5.90699618		0.64821038		 0.00002070		 0.00022688		 0.00026706
Mg		6.84499980		11.99299280		4.75353971		-0.00002070		-0.00022688		-0.00026706
Mg		2.40499993		1.43199986		4.69952341		 0.00011086		-0.00005398		-0.00011527
Mg		16.09499953		16.46799097		0.70222668		-0.00011086		 0.00005398		 0.00011527
Mg		6.84499980		16.46799097		1.99864744		-0.00011086		 0.00005398		-0.00011527
Mg		11.65499966		1.43199986		3.40310265		 0.00011086		-0.00005398		 0.00011527
Mg		16.09499953		10.38199435		0.70222668		-0.00011086		-0.00005398		 0.00011527
Mg		2.40499993		7.51799648		4.69952341		 0.00011086		 0.00005398		-0.00011527
Mg		11.65499966		7.51799648		3.40310265		 0.00011086		 0.00005398		 0.00011527
Mg		6.84499980		10.38199435		1.99864744		-0.00011086		-0.00005398		-0.00011527
Mg		2.40499993		17.54198994		2.05266559		 0.00039660		 0.00001211		 0.00001278
Mg		16.09499953		0.35800089		3.34908450		-0.00039660		-0.00001211		-0.00001278
Mg		6.84499980		0.35800089		4.75353971		-0.00039660		-0.00001211		 0.00001278
Mg		11.65499966		17.54198994		0.64821038		 0.00039660		 0.00001211		-0.00001278
Mg		16.09499953		8.59199545		3.34908450		-0.00039660		 0.00001211		-0.00001278
Mg		2.40499993		9.30799538		2.05266559		 0.00039660		-0.00001211		 0.00001278
Mg		11.65499966		9.30799538		0.64821038		 0.00039660		-0.00001211		-0.00001278
Mg		6.84499980		8.59199545		4.75353971		-0.00039660		 0.00001211		 0.00001278
Mg		2.40499993		4.47499817		4.69952341		-0.00048955		0.00000000		 0.00048894
Mg		16.09499953		13.42499266		0.70222668		 0.00048955		0.00000000		-0.00048894
Mg		6.84499980		13.42499266		1.99864744		 0.00048955		0.00000000		 0.00048894
Mg		11.65499966		4.47499817		3.40310265		-0.00048955		0.00000000		-0.00048894
Si		0.55499998		14.67799207		1.56650780		 0.00049410		-0.00032090		-0.00053712
Si		17.94500132		3.22199876		3.83524229		-0.00049410		 0.00032090		 0.00053712
Si		8.69499974		3.22199876		4.26738192		-0.00049410		 0.00032090		-0.00053712
Si		9.80499786		14.67799207		1.13436817		 0.00049410		-0.00032090		 0.00053712
Si		17.94500132		5.72799758		3.83524229		-0.00049410		-0.00032090		 0.00053712
Si		0.55499998		12.17199324		1.56650780		 0.00049410		 0.00032090		-0.00053712
Si		9.80499786		12.17199324		1.13436817		 0.00049410		 0.00032090		 0.00053712
Si		8.69499974		5.72799758		4.26738192		-0.00049410		-0.00032090		-0.00053712
Si		0.55499998		16.46799097		4.26738377		 0.00018453		-0.00020414		-0.00054447
Si		17.94500132		1.43199986		1.13436632		-0.00018453		 0.00020414		 0.00054447
Si		8.69499974		1.43199986		1.56650780		-0.00018453		 0.00020414		-0.00054447
Si		9.80499786		16.46799097		3.83524229		 0.00018453		-0.00020414		 0.00054447
Si		17.94500132		7.51799648		1.13436632		-0.00018453		-0.00020414		 0.00054447
Si		0.55499998		10.38199435		4.26738377		 0.00018453		 0.00020414		-0.00054447
Si		9.80499786		10.38199435		3.83524229		 0.00018453		 0.00020414		 0.00054447
Si		8.69499974		7.51799648		1.56650780		-0.00018453		-0.00020414		-0.00054447
Si		4.06999988		16.46799097		0.21607074		-0.00025740		 0.00025660		-0.00019013
Si		14.42999773		1.43199986		5.18567935		 0.00025740		-0.00025660		 0.00019013
Si		5.17999985		1.43199986		2.91694486		 0.00025740		-0.00025660		-0.00019013
Si		13.32000146		16.46799097		2.48480523		-0.00025740		 0.00025660		 0.00019013
Si		14.42999773		7.51799648		5.18567935		 0.00025740		 0.00025660		 0.00019013
Si		4.06999988		10.38199435		0.21607074		-0.00025740		-0.00025660		-0.00019013
Si		13.32000146		10.38199435		2.48480523		-0.00025740		-0.00025660		 0.00019013
Si		5.17999985		7.51799648		2.91694486		 0.00025740		 0.00025660		-0.00019013
Si		4.06999988		14.67799207		2.91694486		-0.00008911		-0.00010052		-0.00017393
Si		14.42999773		3.22199876		2.48480523		 0.00008911		 0.00010052		 0.00017393
Si		5.17999985		3.22199876		0.21607074		 0.00008911		 0.00010052		-0.00017393
Si		13.32000146		14.67799207		5.18567935		-0.00008911		-0.00010052		 0.00017393
Si		14.42999773		5.72799758		2.48480523		 0.00008911		-0.00010052		 0.00017393
Si		4.06999988		12.17199324		2.91694486		-0.00008911		 0.00010052		-0.00017393
Si		13.32000146		12.17199324		5.18567935		-0.00008911		 0.00010052		 0.00017393
Si		5.17999985		5.72799758		0.21607074		 0.00008911		-0.00010052		-0.00017393
O		1.10999997		1.25299941		1.08035002		-0.00037244		 0.00039631		 0.00020760
O		17.38999949		16.64699141		4.32140007		 0.00037244		-0.00039631		-0.00020760
O		8.13999976		16.64699141		3.78122414		 0.00037244		-0.00039631		 0.00020760
O		10.35999970		1.25299941		1.62052410		-0.00037244		 0.00039631		-0.00020760
O		17.38999949		10.20299390		4.32140007		 0.00037244		 0.00039631		-0.00020760
O		1.10999997		7.69699507		1.08035002		-0.00037244		-0.00039631		 0.00020760
O		10.35999970		7.69699507		1.62052410		-0.00037244		-0.00039631		-0.00020760
O		8.13999976		10.20299390		3.78122414		 0.00037244		 0.00039631		 0.00020760
O		1.10999997		3.22199876		3.78122414		-0.00049049		-0.00025796		-0.00016715
O		17.38999949		14.67799207		1.62052410		 0.00049049		 0.00025796		 0.00016715
O		8.13999976		14.67799207		1.08035002		 0.00049049		 0.00025796		-0.00016715
O		10.35999970		3.22199876		4.32140007		-0.00049049		-0.00025796		 0.00016715
O		17.38999949		12.17199324		1.62052410		 0.00049049		-0.00025796		 0.00016715
O		1.10999997		5.72799758		3.78122414		-0.00049049		 0.00025796		-0.00016715
O		10.35999970		5.72799758		4.32140007		-0.00049049		 0.00025796		 0.00016715
O		8.13999976		12.17199324		1.08035002		 0.00049049		-0.00025796		-0.00016715
O		1.10999997		13.42499266		1.08035002		-0.00020443		0.00000000		-0.00055480
O		17.38999949		4.47499817		4.32140007		 0.00020443		-0.00000000		 0.00055480
O		8.13999976		4.47499817		3.78122414		 0.00020443		0.00000000		-0.00055480
O		10.35999970		13.42499266		1.62052410		-0.00020443		-0.00000000		 0.00055480
O		1.10999997		4.47499817		1.08035002		 0.00040461		-0.00000000		 0.00004287
O		17.38999949		13.42499266		4.32140007		-0.00040461		0.00000000		-0.00004287
O		8.13999976		13.42499266		3.78122414		-0.00040461		0.00000000		 0.00004287
O		10.35999970		4.47499817		1.62052410		 0.00040461		0.00000000		-0.00004287
O		1.10999997		0.00000000		3.78122414		 0.00007548		-0.00019476		 0.00002310
O		17.38999949		0.00000000		1.62052410		-0.00007548		 0.00019476		-0.00002310
O		8.13999976		0.00000000		1.08035002		-0.00007548		 0.00019476		 0.00002310
O		10.35999970		0.00000000		4.32140007		 0.00007548		-0.00019476		-0.00002310
O		17.38999949		8.94999449		1.62052410		-0.00007548		-0.00019476		-0.00002310
O		1.10999997		8.94999449		3.78122414		 0.00007548		 0.00019476		 0.00002310
O		10.35999970		8.94999449		4.32140007		 0.00007548		 0.00019476		-0.00002310
O		8.13999976		8.94999449		1.08035002		-0.00007548		-0.00019476		 0.00002310
O		0.92499997		15.57299059		0.27008889		-0.00004777		 0.00030043		-0.00006848
O		17.57499948		2.32699838		5.13166120		 0.00004777		-0.00030043		 0.00006848
O		8.32499976		2.32699838		2.97096301		 0.00004777		-0.00030043		-0.00006848
O		10.17499970		15.57299059		2.43078708		-0.00004777		 0.00030043		 0.00006848
O		17.57499948		6.62299611		5.13166120		 0.00004777		 0.00030043		 0.00006848
O		0.92499997		11.27699287		0.27008889		-0.00004777		-0.00030043		-0.00006848
O		10.17499970		11.27699287		2.43078708		-0.00004777		-0.00030043		 0.00006848
O		8.32499976		6.62299611		2.97096301		 0.00004777		 0.00030043		-0.00006848
O		0.92499997		15.57299059		2.91694486		-0.00008889		 0.00002623		-0.00051534
O		17.57499948		2.32699838		2.48480523		 0.00008889		-0.00002623		 0.00051534
O		8.32499976		2.32699838		0.21607074		 0.00008889		-0.00002623		-0.00051534
O		10.17499970		15.57299059		5.18567935		-0.00008889		 0.00002623		 0.00051534
O		17.57499948		6.62299611		2.48480523		 0.00008889		 0.00002623		 0.00051534
O		0.92499997		11.27699287		2.91694486		-0.00008889		-0.00002623		-0.00051534
O		10.17499970		11.27699287		5.18567935		-0.00008889		-0.00002623		 0.00051534
O		8.32499976		6.62299611		0.21607074		 0.00008889		 0.00002623		-0.00051534
O		3.51499990		3.22199876		0.27008889		 0.00013131		 0.00021948		 0.00041725
O		14.98499956		14.67799207		5.13166120		-0.00013131		-0.00021948		-0.00041725
O		5.73499983		14.67799207		2.97096301		-0.00013131		-0.00021948		 0.00041725
O		12.76499963		3.22199876		2.43078708		 0.00013131		 0.00021948		-0.00041725
O		14.98499956		12.17199324		5.13166120		-0.00013131		 0.00021948		-0.00041725
O		3.51499990		5.72799758		0.27008889		 0.00013131		-0.00021948		 0.00041725
O		12.76499963		5.72799758		2.43078708		 0.00013131		-0.00021948		-0.00041725
O		5.73499983		12.17199324		2.97096301		-0.00013131		 0.00021948		 0.00041725
O		3.51499990		1.25299941		3.02497931		 0.00034244		 0.00013063		 0.00005988
O		14.98499956		16.64699141		2.37677078		-0.00034244		-0.00013063		-0.00005988
O		5.73499983		16.64699141		0.32410519		-0.00034244		-0.00013063		 0.00005988
O		12.76499963		1.25299941		5.07764490		 0.00034244		 0.00013063		-0.00005988
O		14.98499956		10.20299390		2.37677078		-0.00034244		 0.00013063		-0.00005988
O		3.51499990		7.69699507		3.02497931		 0.00034244		-0.00013063		 0.00005988
O		12.76499963		7.69699507		5.07764490		 0.00034244		-0.00013063		-0.00005988
O		5.73499983		10.20299390		0.32410519		-0.00034244		 0.00013063		 0.00005988
O		3.51499990		0.00000000		0.27008889		-0.00057067		-0.00010231		-0.00042639
O		14.98499956		0.00000000		5.13166120		 0.00057067		 0.00010231		 0.00042639
O		5.73499983		0.00000000		2.97096301		 0.00057067		 0.00010231		-0.00042639
O		12.76499963		0.00000000		2.43078708		-0.00057067		-0.00010231		 0.00042639
O		14.98499956		8.94999449		5.13166120		 0.00057067		-0.00010231		 0.00042639
O		3.51499990		8.94999449		0.27008889		-0.00057067		 0.00010231		-0.00042639
O		12.76499963		8.94999449		2.43078708		-0.00057067		 0.00010231		 0.00042639
O		5.73499983		8.94999449		2.97096301		 0.00057067		-0.00010231		-0.00042639
O		3.51499990		13.42499266		2.43078708		 0.00066300		0.00000000		-0.00011202
O		14.98499956		4.47499817		2.97096301		-0.00066300		0.00000000		 0.00011202
O		5.73499983		4.47499817		5.13166120		-0.00066300		0.00000000		-0.00011202
O		12.76499963		13.42499266		0.27008889		 0.00066300		-0.00000000		 0.00011202
O		3.51499990		4.47499817		2.97096301		 0.00074415		0.00000000		-0.00086918
O		14.98499956		13.42499266		2.43078708		-0.00074415		0.00000000		 0.00086918
O		5.73499983		13.42499266		0.27008889		-0.00074415		0.00000000		-0.00086918
O		12.76499963		4.47499817		5.13166120		 0.00074415		0.00000000		 0.00086918
O		3.69999989		15.57299059		1.62052410		 0.00022773		 0.00026706		-0.00009576
O		14.79999957		2.32699838		3.78122414		-0.00022773		-0.00026706		 0.00009576
O		5.54999984		2.32699838		4.32140007		-0.00022773		-0.00026706		-0.00009576
O		12.94999962		15.57299059		1.08035002		 0.00022773		 0.00026706		 0.00009576
O		14.79999957		6.62299611		3.78122414		-0.00022773		 0.00026706		 0.00009576
O		3.69999989		11.27699287		1.62052410		 0.00022773		-0.00026706		-0.00009576
O		12.94999962		11.27699287		1.08035002		 0.00022773		-0.00026706		 0.00009576
O		5.54999984		6.62299611		4.32140007		-0.00022773		 0.00026706		-0.00009576
O		3.69999989		15.57299059		4.32140007		-0.00000705		-0.00000575		 0.00005881
O		14.79999957		2.32699838		1.08035002		 0.00000705		 0.00000575		-0.00005881
O		5.54999984		2.32699838		1.62052410		 0.00000705		 0.00000575		 0.00005881
O		12.94999962		15.57299059		3.78122414		-0.00000705		-0.00000575		-0.00005881
O		14.79999957		6.62299611		1.08035002		 0.00000705		-0.00000575		-0.00005881
O		3.69999989		11.27699287		4.32140007		-0.00000705		 0.00000575		 0.00005881
O		12.94999962		11.27699287		3.78122414		-0.00000705		 0.00000575		-0.00005881
O		5.54999984		6.62299611		1.62052410		 0.00000705		-0.00000575		 0.00005881
H		17.94500132		0.00000000		0.81026298		 0.00019832		-0.00033240		 0.00001464
H		0.55499813		0.00000000		4.59148712		-0.00019832		 0.00033240		-0.00001464
H		9.80499786		0.00000000		3.51113710		-0.00019832		 0.00033240		 0.00001464
H		8.69500159		0.00000000		1.89061114		 0.00019832		-0.00033240		-0.00001464
H		0.55499813		8.94999449		4.59148712		-0.00019832		-0.00033240		-0.00001464
H		17.94500132		8.94999449		0.81026298		 0.00019832		 0.00033240		 0.00001464
H		8.69500159		8.94999449		1.89061114		 0.00019832		 0.00033240		-0.00001464
H		9.80499786		8.94999449		3.51113710		-0.00019832		-0.00033240		 0.00001464
