# total energy = -92494.644984 eV

CRYSTAL
PRIMVEC
		18.49999946		0.00000000		0.00000000
		0.00000000		17.89998897		0.00000000
		0.00000000		0.00000000		5.66525483
PRIMECORD
   164 1
Mg		2.40499993		3.04299831		2.15279499		 0.00002385		-0.00000814		-0.00051607
Mg		16.09499953		14.85699066		3.51245430		-0.00002385		 0.00000814		 0.00051607
Mg		6.84499980		14.85699066		4.98542055		-0.00002385		 0.00000814		-0.00051607
Mg		11.65499966		3.04299831		0.67983058		 0.00002385		-0.00000814		 0.00051607
Mg		16.09499953		11.99299280		3.51245430		-0.00002385		-0.00000814		 0.00051607
Mg		2.40499993		5.90699618		2.15279499		 0.00002385		 0.00000814		-0.00051607
Mg		11.65499966		5.90699618		0.67983058		 0.00002385		 0.00000814		 0.00051607
Mg		6.84499980		11.99299280		4.98542055		-0.00002385		-0.00000814		-0.00051607
Mg		2.40499993		1.43199986		4.92876801		 0.00024976		 0.00012876		 0.00056810
Mg		16.09499953		16.46799097		0.73648128		-0.00024976		-0.00012876		-0.00056810
Mg		6.84499980		16.46799097		2.09614244		-0.00024976		-0.00012876		 0.00056810
Mg		11.65499966		1.43199986		3.56910685		 0.00024976		 0.00012876		-0.00056810
Mg		16.09499953		10.38199435		0.73648128		-0.00024976		 0.00012876		-0.00056810
Mg		2.40499993		7.51799648		4.92876801		 0.00024976		-0.00012876		 0.00056810
Mg		11.65499966		7.51799648		3.56910685		 0.00024976		-0.00012876		-0.00056810
Mg		6.84499980		10.38199435		2.09614244		-0.00024976		 0.00012876		 0.00056810
Mg		2.40499993		17.54198994		2.15279499		-0.00016466		 0.00019418		 0.00045201
Mg		16.09499953		0.35800089		3.51245430		 0.00016466		-0.00019418		-0.00045201
Mg		6.84499980		0.35800089		4.98542055		 0.00016466		-0.00019418		 0.00045201
Mg		11.65499966		17.54198994		0.67983058		-0.00016466		 0.00019418		-0.00045201
Mg		16.09499953		8.59199545		3.51245430		 0.00016466		 0.00019418		-0.00045201
Mg		2.40499993		9.30799538		2.15279499		-0.00016466		-0.00019418		 0.00045201
Mg		11.65499966		9.30799538		0.67983058		-0.00016466		-0.00019418		-0.00045201
Mg		6.84499980		8.59199545		4.98542055		 0.00016466		 0.00019418		 0.00045201
Mg		2.40499993		4.47499817		4.92876801		 0.00001648		0.00000000		 0.00036045
Mg		16.09499953		13.42499266		0.73648128		-0.00001648		0.00000000		-0.00036045
Mg		6.84499980		13.42499266		2.09614244		-0.00001648		0.00000000		 0.00036045
Mg		11.65499966		4.47499817		3.56910685		 0.00001648		0.00000000		-0.00036045
Si		0.55499998		14.67799207		1.64292205		-0.00028507		 0.00009820		 0.00004000
Si		17.94500132		3.22199876		4.02232723		 0.00028507		-0.00009820		-0.00004000
Si		8.69499974		3.22199876		4.47554762		 0.00028507		-0.00009820		 0.00004000
Si		9.80499786		14.67799207		1.18970352		-0.00028507		 0.00009820		-0.00004000
Si		17.94500132		5.72799758		4.02232723		 0.00028507		 0.00009820		-0.00004000
Si		0.55499998		12.17199324		1.64292205		-0.00028507		-0.00009820		 0.00004000
Si		9.80499786		12.17199324		1.18970352		-0.00028507		-0.00009820		-0.00004000
Si		8.69499974		5.72799758		4.47554762		 0.00028507		 0.00009820		 0.00004000
Si		0.55499998		16.46799097		4.47554762		-0.00034553		 0.00004286		 0.00007267
Si		17.94500132		1.43199986		1.18970167		 0.00034553		-0.00004286		-0.00007267
Si		8.69499974		1.43199986		1.64292205		 0.00034553		-0.00004286		 0.00007267
Si		9.80499786		16.46799097		4.02232723		-0.00034553		 0.00004286		-0.00007267
Si		17.94500132		7.51799648		1.18970167		 0.00034553		 0.00004286		-0.00007267
Si		0.55499998		10.38199435		4.47554762		-0.00034553		-0.00004286		 0.00007267
Si		9.80499786		10.38199435		4.02232723		-0.00034553		-0.00004286		-0.00007267
Si		8.69499974		7.51799648		1.64292205		 0.00034553		 0.00004286		 0.00007267
Si		4.06999988		16.46799097		0.22661019		 0.00000583		-0.00006220		 0.00017405
Si		14.42999773		1.43199986		5.43863909		-0.00000583		 0.00006220		-0.00017405
Si		5.17999985		1.43199986		3.05923576		-0.00000583		 0.00006220		 0.00017405
Si		13.32000146		16.46799097		2.60601537		 0.00000583		-0.00006220		-0.00017405
Si		14.42999773		7.51799648		5.43863909		-0.00000583		-0.00006220		-0.00017405
Si		4.06999988		10.38199435		0.22661019		 0.00000583		 0.00006220		 0.00017405
Si		13.32000146		10.38199435		2.60601537		 0.00000583		 0.00006220		-0.00017405
Si		5.17999985		7.51799648		3.05923576		-0.00000583		-0.00006220		 0.00017405
Si		4.06999988		14.67799207		3.05923576		 0.00030573		-0.00009836		-0.00005147
Si		14.42999773		3.22199876		2.60601537		-0.00030573		 0.00009836		 0.00005147
Si		5.17999985		3.22199876		0.22661019		-0.00030573		 0.00009836		-0.00005147
Si		13.32000146		14.67799207		5.43863909		 0.00030573		-0.00009836		 0.00005147
Si		14.42999773		5.72799758		2.60601537		-0.00030573		-0.00009836		 0.00005147
Si		4.06999988		12.17199324		3.05923576		 0.00030573		 0.00009836		-0.00005147
Si		13.32000146		12.17199324		5.43863909		 0.00030573		 0.00009836		 0.00005147
Si		5.17999985		5.72799758		0.22661019		-0.00030573		-0.00009836		-0.00005147
O		1.10999997		1.25299941		1.13304912		 0.00055263		-0.00002218		 0.00009801
O		17.38999949		16.64699141		4.53220017		-0.00055263		 0.00002218		-0.00009801
O		8.13999976		16.64699141		3.96567468		-0.00055263		 0.00002218		 0.00009801
O		10.35999970		1.25299941		1.69957460		 0.00055263		-0.00002218		-0.00009801
O		17.38999949		10.20299390		4.53220017		-0.00055263		-0.00002218		-0.00009801
O		1.10999997		7.69699507		1.13304912		 0.00055263		 0.00002218		 0.00009801
O		10.35999970		7.69699507		1.69957460		 0.00055263		 0.00002218		-0.00009801
O		8.13999976		10.20299390		3.96567468		-0.00055263		-0.00002218		 0.00009801
O		1.10999997		3.22199876		3.96567468		 0.00023067		-0.00010700		 0.00017209
O		17.38999949		14.67799207		1.69957460		-0.00023067		 0.00010700		-0.00017209
O		8.13999976		14.67799207		1.13304912		-0.00023067		 0.00010700		 0.00017209
O		10.35999970		3.22199876		4.53220017		 0.00023067		-0.00010700		-0.00017209
O		17.38999949		12.17199324		1.69957460		-0.00023067		-0.00010700		-0.00017209
O		1.10999997		5.72799758		3.96567468		 0.00023067		 0.00010700		 0.00017209
O		10.35999970		5.72799758		4.53220017		 0.00023067		 0.00010700		-0.00017209
O		8.13999976		12.17199324		1.13304912		-0.00023067		-0.00010700		 0.00017209
O		1.10999997		13.42499266		1.13304912		-0.00035523		0.00000000		-0.00042528
O		17.38999949		4.47499817		4.53220017		 0.00035523		0.00000000		 0.00042528
O		8.13999976		4.47499817		3.96567468		 0.00035523		-0.00000000		-0.00042528
O		10.35999970		13.42499266		1.69957460		-0.00035523		0.00000000		 0.00042528
O		1.10999997		4.47499817		1.13304912		-0.00031451		0.00000000		-0.00059470
O		17.38999949		13.42499266		4.53220017		 0.00031451		0.00000000		 0.00059470
O		8.13999976		13.42499266		3.96567468		 0.00031451		0.00000000		-0.00059470
O		10.35999970		4.47499817		1.69957460		-0.00031451		0.00000000		 0.00059470
O		1.10999997		0.00000000		3.96567468		-0.00009816		 0.00015751		-0.00035250
O		17.38999949		0.00000000		1.69957460		 0.00009816		-0.00015751		 0.00035250
O		8.13999976		0.00000000		1.13304912		 0.00009816		-0.00015751		-0.00035250
O		10.35999970		0.00000000		4.53220017		-0.00009816		 0.00015751		 0.00035250
O		17.38999949		8.94999449		1.69957460		 0.00009816		 0.00015751		 0.00035250
O		1.10999997		8.94999449		3.96567468		-0.00009816		-0.00015751		-0.00035250
O		10.35999970		8.94999449		4.53220017		-0.00009816		-0.00015751		 0.00035250
O		8.13999976		8.94999449		1.13304912		 0.00009816		 0.00015751		-0.00035250
O		0.92499997		15.57299059		0.28326274		-0.00020300		-0.00036039		-0.00010991
O		17.57499948		2.32699838		5.38198654		 0.00020300		 0.00036039		 0.00010991
O		8.32499976		2.32699838		3.11588831		 0.00020300		 0.00036039		-0.00010991
O		10.17499970		15.57299059		2.54936283		-0.00020300		-0.00036039		 0.00010991
O		17.57499948		6.62299611		5.38198654		 0.00020300		-0.00036039		 0.00010991
O		0.92499997		11.27699287		0.28326274		-0.00020300		 0.00036039		-0.00010991
O		10.17499970		11.27699287		2.54936283		-0.00020300		 0.00036039		 0.00010991
O		8.32499976		6.62299611		3.11588831		 0.00020300		-0.00036039		-0.00010991
O		0.92499997		15.57299059		3.05923576		-0.00022122		-0.00016818		 0.00019263
O		17.57499948		2.32699838		2.60601537		 0.00022122		 0.00016818		-0.00019263
O		8.32499976		2.32699838		0.22661019		 0.00022122		 0.00016818		 0.00019263
O		10.17499970		15.57299059		5.43863909		-0.00022122		-0.00016818		-0.00019263
O		17.57499948		6.62299611		2.60601537		 0.00022122		-0.00016818		-0.00019263
O		0.92499997		11.27699287		3.05923576		-0.00022122		 0.00016818		 0.00019263
O		10.17499970		11.27699287		5.43863909		-0.00022122		 0.00016818		-0.00019263
O		8.32499976		6.62299611		0.22661019		 0.00022122		-0.00016818		 0.00019263
O		3.51499990		3.22199876		0.28326274		-0.00048891		-0.00027200		-0.00066271
O		14.98499956		14.67799207		5.38198654		 0.00048891		 0.00027200		 0.00066271
O		5.73499983		14.67799207		3.11588831		 0.00048891		 0.00027200		-0.00066271
O		12.76499963		3.22199876		2.54936283		-0.00048891		-0.00027200		 0.00066271
O		14.98499956		12.17199324		5.38198654		 0.00048891		-0.00027200		 0.00066271
O		3.51499990		5.72799758		0.28326274		-0.00048891		 0.00027200		-0.00066271
O		12.76499963		5.72799758		2.54936283		-0.00048891		 0.00027200		 0.00066271
O		5.73499983		12.17199324		3.11588831		 0.00048891		-0.00027200		-0.00066271
O		3.51499990		1.25299941		3.17253901		-0.00007826		-0.00005738		 0.00027872
O		14.98499956		16.64699141		2.49271028		 0.00007826		 0.00005738		-0.00027872
O		5.73499983		16.64699141		0.33991529		 0.00007826		 0.00005738		 0.00027872
O		12.76499963		1.25299941		5.32533399		-0.00007826		-0.00005738		-0.00027872
O		14.98499956		10.20299390		2.49271028		 0.00007826		-0.00005738		-0.00027872
O		3.51499990		7.69699507		3.17253901		-0.00007826		 0.00005738		 0.00027872
O		12.76499963		7.69699507		5.32533399		-0.00007826		 0.00005738		-0.00027872
O		5.73499983		10.20299390		0.33991529		 0.00007826		-0.00005738		 0.00027872
O		3.51499990		0.00000000		0.28326274		 0.00007693		-0.00011353		 0.00020099
O		14.98499956		0.00000000		5.38198654		-0.00007693		 0.00011353		-0.00020099
O		5.73499983		0.00000000		3.11588831		-0.00007693		 0.00011353		 0.00020099
O		12.76499963		0.00000000		2.54936283		 0.00007693		-0.00011353		-0.00020099
O		14.98499956		8.94999449		5.38198654		-0.00007693		-0.00011353		-0.00020099
O		3.51499990		8.94999449		0.28326274		 0.00007693		 0.00011353		 0.00020099
O		12.76499963		8.94999449		2.54936283		 0.00007693		 0.00011353		-0.00020099
O		5.73499983		8.94999449		3.11588831		-0.00007693		-0.00011353		 0.00020099
O		3.51499990		13.42499266		2.54936283		-0.00063770		0.00000000		-0.00070677
O		14.98499956		4.47499817		3.11588831		 0.00063770		0.00000000		 0.00070677
O		5.73499983		4.47499817		5.38198654		 0.00063770		0.00000000		-0.00070677
O		12.76499963		13.42499266		0.28326274		-0.00063770		0.00000000		 0.00070677
O		3.51499990		4.47499817		3.11588831		-0.00059476		0.00000000		 0.00041356
O		14.98499956		13.42499266		2.54936283		 0.00059476		-0.00000000		-0.00041356
O		5.73499983		13.42499266		0.28326274		 0.00059476		-0.00000000		 0.00041356
O		12.76499963		4.47499817		5.38198654		-0.00059476		0.00000000		-0.00041356
O		3.69999989		15.57299059		1.69957460		-0.00025821		 0.00008069		 0.00040211
O		14.79999957		2.32699838		3.96567468		 0.00025821		-0.00008069		-0.00040211
O		5.54999984		2.32699838		4.53220017		 0.00025821		-0.00008069		 0.00040211
O		12.94999962		15.57299059		1.13304912		-0.00025821		 0.00008069		-0.00040211
O		14.79999957		6.62299611		3.96567468		 0.00025821		 0.00008069		-0.00040211
O		3.69999989		11.27699287		1.69957460		-0.00025821		-0.00008069		 0.00040211
O		12.94999962		11.27699287		1.13304912		-0.00025821		-0.00008069		-0.00040211
O		5.54999984		6.62299611		4.53220017		 0.00025821		 0.00008069		 0.00040211
O		3.69999989		15.57299059		4.53220017		-0.00027736		-0.00015788		-0.00012304
O		14.79999957		2.32699838		1.13304912		 0.00027736		 0.00015788		 0.00012304
O		5.54999984		2.32699838		1.69957460		 0.00027736		 0.00015788		-0.00012304
O		12.94999962		15.57299059		3.96567468		-0.00027736		-0.00015788		 0.00012304
O		14.79999957		6.62299611		1.13304912		 0.00027736		-0.00015788		 0.00012304
O		3.69999989		11.27699287		4.53220017		-0.00027736		 0.00015788		-0.00012304
O		12.94999962		11.27699287		3.96567468		-0.00027736		 0.00015788		 0.00012304
O		5.54999984		6.62299611		1.69957460		 0.00027736		-0.00015788		-0.00012304
H		17.94500132		0.00000000		0.84978823		-0.00033816		 0.00048686		-0.00024743
H		0.55499813		0.00000000		4.81546291		 0.00033816		-0.00048686		 0.00024743
H		9.80499786		0.00000000		3.68241194		 0.00033816		-0.00048686		-0.00024743
H		8.69500159		0.00000000		1.98283734		-0.00033816		 0.00048686		 0.00024743
H		0.55499813		8.94999449		4.81546291		 0.00033816		 0.00048686		 0.00024743
H		17.94500132		8.94999449		0.84978823		-0.00033816		-0.00048686		-0.00024743
H		8.69500159		8.94999449		1.98283734		-0.00033816		-0.00048686		 0.00024743
H		9.80499786		8.94999449		3.68241194		 0.00033816		 0.00048686		-0.00024743
