# total energy = -24716.2374969 eV	

CRYSTAL	
PRIMVEC	
		9.46368972		0.00000000		0.00000927	
		0.00000000		9.06162233		0.00000000	
		0.00000927		0.00000000		5.43210126	
PRIMCOORD
   40 1	
Mg		0.00000000		8.09396116		1.35802671		-0.00000006		-0.00001735		 0.00000005	
Mg		0.00000000		0.96766302		4.07407919		 0.00000012		 0.00001757		-0.00000004	
Mg		4.73184950		5.49844266		4.07408475		 0.00000007		 0.00012614		 0.00000008	
Mg		4.73184671		3.56318153		1.35803227		-0.00000010		-0.00012585		-0.00000012	
Mg		0.00000000		2.31133110		1.35802578		 0.00000003		-0.00010073		 0.00000013	
Mg		0.00000000		6.75029493		4.07408012		-0.00000005		 0.00010062		-0.00000016	
Mg		4.73184950		2.21951901		4.07408475		-0.00000022		-0.00002271		 0.00000009	
Mg		4.73184579		6.84210610		1.35803134		 0.00000017		 0.00002257		-0.00000017	
Si		2.76507989		0.80546641		0.32822583		-0.00053733		-0.00001344		-0.00036101	
Si		6.69861539		8.25615962		5.10389027		 0.00053654		 0.00001232		 0.00036124	
Si		1.96714053		3.72559235		3.04430242		-0.00072982		-0.00079521		-0.00044209	
Si		7.49655475		5.33603276		2.38781460		 0.00072959		 0.00079515		 0.00044203	
Si		6.69861076		0.80546641		2.38783778		 0.00053895		-0.00001548		 0.00036056	
Si		2.76508360		8.25615870		3.04427924		-0.00053895		 0.00001543		-0.00036064	
Si		7.49655753		3.72559235		5.10386708		 0.00072898		-0.00079381		 0.00044192	
Si		1.96713682		5.33603276		0.32824901		-0.00072874		 0.00079390		-0.00044179	
O		1.12666037		0.85800836		0.38670170		 0.00039778		 0.00039097		 0.00027756	
O		8.33703398		8.20361675		5.04541532		-0.00039726		-0.00039085		-0.00027762	
O		3.60498511		3.67279075		3.10275511		 0.00029286		-0.00035302		 0.00028582	
O		5.85870924		5.38883344		2.32936191		-0.00029251		 0.00035313		-0.00028580	
O		8.33703120		0.85800929		2.32936191		-0.00039857		 0.00039086		-0.00027752	
O		1.12666408		8.20361675		3.10275511		 0.00039847		-0.00039102		 0.00027750	
O		5.85871295		3.67279167		5.04541440		-0.00029241		-0.00035327		-0.00028585	
O		3.60498233		5.38883344		0.38670170		 0.00029209		 0.00035310		 0.00028594	
O		3.59412434		2.19222798		0.33645208		 0.00056029		 0.00063472		 0.00024604	
O		5.86957094		6.86939713		5.09566494		-0.00055979		-0.00063383		-0.00024598	
O		1.13756009		2.33834393		3.05251013		-0.00000260		 0.00015993		 0.00021037	
O		8.32613519		6.72328118		2.37960689		 0.00000266		-0.00015976		-0.00021044	
O		5.86956816		2.19222705		2.37961245		-0.00056112		 0.00063610		-0.00024596	
O		3.59412805		6.86939898		3.05250457		 0.00056103		-0.00063624		 0.00024602	
O		8.32613797		2.33834486		5.09565937		 0.00000308		 0.00015887		-0.00021039	
O		1.13755731		6.72328025		0.33645765		-0.00000322		-0.00015893		 0.00021036	
O		3.26856177		8.86790982		1.56159755		-0.00008046		-0.00015895		-0.00049515	
O		6.19513258		0.19371529		3.87051947		 0.00008049		 0.00015917		 0.00049487	
O		1.46324228		4.72451903		4.27762778		 0.00023870		 0.00018566		-0.00042347	
O		8.00045207		4.33710608		1.15448925		-0.00023858		-0.00018574		 0.00042338	
O		6.19512980		8.86790982		1.15446606		 0.00008057		-0.00015837		 0.00049585	
O		3.26856548		0.19371621		4.27765003		-0.00008052		 0.00015843		-0.00049571	
O		8.00045578		4.72451903		3.87054173		-0.00023879		 0.00018530		 0.00042401	
O		1.46323950		4.33710608		1.56157436		 0.00023863		-0.00018538		-0.00042392	
