# total energy = -24716.6400903 eV	

CRYSTAL	
PRIMVEC	
		9.27940342		0.00000000		0.00000000	
		0.00000000		8.71263473		0.00000000	
		0.00000000		0.00000000		5.30903662	
PRIMCOORD
   40 1	
Mg		0.00000000		7.88325088		1.32726008		-0.00000000		 0.00074497		-0.00000002	
Mg		0.00000000		0.82938199		3.98177932		 0.00000011		-0.00074526		 0.00000004	
Mg		4.63970357		5.18569843		3.98177932		 0.00000005		-0.00074402		 0.00000014	
Mg		4.63970357		3.52693444		1.32726008		-0.00000007		 0.00074373		-0.00000009	
Mg		0.00000000		2.31128845		1.32726008		 0.00000017		 0.00002590		 0.00000013	
Mg		0.00000000		6.40134350		3.98177932		-0.00000014		-0.00002579		-0.00000011	
Mg		4.63970357		2.04502706		3.98178025		-0.00000005		-0.00002702		-0.00000001	
Mg		4.63970357		6.66760581		1.32725916		 0.00000011		 0.00002710		-0.00000012	
Si		2.71078902		0.79987282		0.35456913		-0.00001242		 0.00003497		 0.00013317	
Si		6.56861719		7.91275913		4.95447027		 0.00001546		-0.00003277		-0.00013343	
Si		1.92891733		3.55644547		3.00908837		-0.00000052		-0.00004331		 0.00013250	
Si		7.35048887		5.15618648		2.29995103		 0.00000369		 0.00004500		-0.00013212	
Si		6.56861719		0.79987282		2.29995196		 0.00001209		 0.00003469		-0.00013328	
Si		2.71079180		7.91275913		3.00908745		-0.00001677		-0.00003042		 0.00013376	
Si		7.35049073		3.55644455		4.95447027		-0.00000180		-0.00004049		-0.00013287	
Si		1.92891826		5.15618740		0.35456821		-0.00000216		 0.00004343		 0.00013249	
O		1.09233192		0.81966275		0.42133524		-0.00029366		-0.00018651		 0.00013943	
O		8.18707614		7.89296920		4.88770416		 0.00029174		 0.00018684		-0.00013936	
O		3.54736979		3.53665276		3.07585448		 0.00030090		 0.00018747		 0.00013963	
O		5.73203826		5.17598012		2.23318400		-0.00030284		-0.00018700		-0.00013974	
O		8.18707429		0.81966275		2.23318492		 0.00029379		-0.00018640		-0.00013953	
O		1.09233192		7.89296920		3.07585448		-0.00029127		 0.00018659		 0.00013943	
O		5.73203734		3.53665183		4.88770416		-0.00029976		 0.00018734		-0.00013963	
O		3.54736979		5.17598105		0.42133432		 0.00030197		-0.00018715		 0.00013978	
O		3.49313085		2.19153527		0.37516677		 0.00013312		 0.00008185		-0.00004523	
O		5.78627721		6.52109853		4.93387264		-0.00013452		-0.00008384		 0.00004521	
O		1.14657086		2.16477838		3.02968601		-0.00012757		-0.00007318		-0.00004606	
O		8.13283720		6.54785449		2.27935340		 0.00012598		 0.00007121		 0.00004606	
O		5.78627535		2.19153527		2.27935340		-0.00013305		 0.00008177		 0.00004525	
O		3.49313085		6.52109946		3.02968601		 0.00013539		-0.00008557		-0.00004508	
O		8.13283534		2.16477931		4.93387264		 0.00012883		-0.00007566		 0.00004596	
O		1.14656993		6.54785449		0.37516677		-0.00012673		 0.00007257		-0.00004614	
O		3.25913835		8.48571119		1.53364349		-0.00005841		-0.00008327		 0.00007936	
O		6.02026878		0.22692169		3.77539592		 0.00005869		 0.00008285		-0.00007943	
O		1.38056614		4.58323720		4.18816365		 0.00006030		 0.00008351		 0.00008019	
O		7.89884099		4.12939475		1.12087482		-0.00006013		-0.00008339		-0.00008006	
O		6.02026971		8.48571119		1.12087575		 0.00005839		-0.00008298		-0.00007886	
O		3.25913835		0.22692261		4.18816365		-0.00005871		 0.00008234		 0.00007865	
O		7.89884191		4.58323627		3.77539406		-0.00006037		 0.00008310		-0.00007983	
O		1.38056614		4.12939568		1.53364441		 0.00006016		-0.00008319		 0.00007983	
