# total energy = -24713.6924267 eV	

CRYSTAL	
PRIMVEC	
		9.91907801		0.00001855		-0.00002782	
		0.00000000		10.81955206		0.00000000	
		0.00006491		0.00000000		5.59557849	
PRIMCOORD
   40 1	
Mg		0.00001855		8.11350443		1.39889648		-0.00000598		-0.00042786		 0.00000015	
Mg		0.00004729		2.70604670		4.19668387		 0.00000743		 0.00042621		 0.00000022	
Mg		4.95958630		8.11603694		4.19666996		 0.00000608		-0.00016477		 0.00000258	
Mg		4.95955569		2.70352625		1.39888257		-0.00000754		 0.00016363		-0.00000311	
Mg		0.00001206		2.70264900		1.39889462		 0.00000759		 0.00045284		-0.00000042	
Mg		0.00005193		8.11689749		4.19668480		-0.00000595		-0.00045393		-0.00000014	
Mg		4.95959093		2.70703430		4.19666903		-0.00000775		 0.00012948		 0.00000293	
Mg		4.95955106		8.11253260		1.39888257		 0.00000625		-0.00013115		-0.00000223	
Si		2.47914820		0.90698940		-0.00198910		 0.00016506		-0.00033088		 0.00003953	
Si		7.43998638		9.91258769		5.59754163		-0.00014421		 0.00029899		-0.00003973	
Si		2.48049559		4.50279405		2.79580942		-0.00017197		 0.00029308		 0.00005615	
Si		7.43864176		6.31675987		2.79974218		 0.00018331		-0.00026246		-0.00005647	
Si		7.43994557		0.90702371		2.79975146		-0.00012975		-0.00038907		-0.00003950	
Si		2.47920384		9.91253205		2.79580107		 0.00011030		 0.00039985		 0.00003977	
Si		7.43869184		4.50278106		5.59753050		 0.00013712		 0.00034081		-0.00005618	
Si		2.48045294		6.31677285		-0.00197797		-0.00014779		-0.00031029		 0.00005630	
O		1.10676101		1.81590763		-0.00075855		 0.00015743		-0.00021275		-0.00015921	
O		8.81238747		9.00364443		5.59631108		-0.00018100		 0.00023216		 0.00015926	
O		3.85253874		3.59335745		2.79702050		-0.00015143		 0.00024463		-0.00015919	
O		6.06660511		7.22621130		2.79853018		 0.00014916		-0.00024446		 0.00015937	
O		8.81234945		1.81593823		2.79852368		-0.00018201		-0.00022800		 0.00015889	
O		1.10678883		9.00363052		2.79703070		 0.00018554		 0.00022983		-0.00015919	
O		6.06663293		3.59335095		5.59632128		 0.00016977		 0.00025301		 0.00015888	
O		3.85251092		7.22621130		-0.00076875		-0.00016828		-0.00025365		-0.00015911	
O		3.85000994		1.81817956		-0.00176376		 0.00021321		-0.00010651		 0.00028397	
O		6.06913113		9.00138548		5.59731629		-0.00021201		 0.00011166		-0.00028421	
O		1.10925921		3.59203231		2.79606350		-0.00015843		 0.00010623		 0.00027944	
O		8.80988556		7.22753644		2.79948717		 0.00014885		-0.00011405		-0.00027919	
O		6.06909589		1.81816936		2.79952426		-0.00022419		-0.00009724		-0.00028373	
O		3.85003498		9.00139382		2.79602734		 0.00024103		 0.00008714		 0.00028390	
O		8.80991152		3.59205827		5.59727363		 0.00017536		 0.00009122		-0.00027894	
O		1.10922954		7.22751512		-0.00172111		-0.00016506		-0.00009997		 0.00027895	
O		2.48049096		10.81887511		1.39646968		-0.00012955		-0.00004819		 0.00008682	
O		7.43865660		0.00068529		4.19908192		 0.00012898		 0.00005401		-0.00009176	
O		2.47977414		5.41048636		4.19428582		 0.00007257		 0.00000930		 0.00003516	
O		7.43936322		5.40909074		1.40127413		-0.00007222		-0.00003177		-0.00006268	
O		7.43862600		10.81885564		1.40126856		 0.00012902		 0.00001574		-0.00000299	
O		2.48051970		0.00070755		4.19428304		-0.00012907		-0.00000992		 0.00000798	
O		7.43939382		5.41051418		4.19903834		-0.00007225		-0.00002883		 0.00001295	
O		2.47974539		5.40906385		1.39650585		 0.00007235		 0.00000597		 0.00001477	
