# total energy = -22460.4121066 eV

CRYSTAL
PRIMVEC
		9.73970004		0.00000000		0.00000000
		0.00000000		8.91739665		1.42678814
		-1.43536881		0.80804447		5.05028771
PRIMECORD
   40 1
Mg		-0.35884269		8.29972435		2.55820526		 0.00014917		 0.00074234		-0.00046497
Mg		-1.07652807		1.42572164		3.91886181		-0.00014917		-0.00074234		 0.00046497
Mg		4.51100733		3.84102408		1.84481314		 0.00015394		 0.00075318		-0.00046552
Mg		3.79332195		5.88442191		4.63225394		-0.00015394		-0.00075318		 0.00046552
Ca		-0.35884269		2.89042935		1.69271799		 0.00027125		-0.00055438		-0.00022860
Ca		-1.07652807		6.83501664		4.78434909		-0.00027125		 0.00055438		 0.00022860
Ca		4.51100733		7.34912865		2.40611011		 0.00025910		-0.00056540		-0.00023760
Ca		3.79332195		2.37631637		4.07095697		-0.00025910		 0.00056540		 0.00023760
Si		2.45818828		1.01634647		1.29129528		 0.00037040		 0.00012060		 0.00007906
Si		5.84614100		8.70910050		5.18577180		-0.00037040		-0.00012060		-0.00007906
Si		6.56382638		1.04970202		1.49977063		 0.00027347		-0.00062669		 0.00028817
Si		1.74050290		8.67574398		4.97729645		-0.00027347		 0.00062669		-0.00028817
Si		7.32803928		5.47504576		2.00468740		-0.00001546		 0.00004111		-0.00009940
Si		0.97629098		4.25040023		4.47237968		 0.00001546		-0.00004111		 0.00009940
Si		1.69397636		5.50840229		2.21316275		 0.00038434		-0.00063393		 0.00030830
Si		6.61035293		4.21704273		4.26390432		-0.00038434		 0.00063393		-0.00030830
O		0.92170288		0.88955115		0.84042119		 0.00021402		 0.00058480		 0.00027835
O		7.38262640		8.83589387		5.63664589		-0.00021402		-0.00058480		-0.00027835
O		8.10031081		1.06431546		1.93269640		-0.00052450		-0.00019962		-0.00000650
O		0.20401847		8.66112956		4.54437067		 0.00052450		 0.00019962		 0.00000650
O		5.79155387		5.34825240		1.55381331		 0.00050383		 0.00059902		 0.00036004
O		2.51277638		4.37719359		4.92325377		-0.00050383		-0.00059902		-0.00036004
O		3.23046079		5.52301573		2.64608755		-0.00058966		-0.00019590		-0.00004405
O		5.07386849		4.20243026		3.83097855		 0.00058966		 0.00019590		 0.00004405
O		3.05934400		2.48780866		1.96174506		-0.00022970		-0.00024150		 0.00019476
O		5.24498528		7.23763733		4.51532202		 0.00022970		 0.00024150		-0.00019476
O		5.96267066		2.37830229		1.27733147		-0.00016163		 0.00067977		 0.00061741
O		2.34165764		7.34714273		5.19973561		 0.00016163		-0.00067977		-0.00061741
O		7.92919402		6.94650893		2.67513718		-0.00014502		-0.00014466		 0.00024035
O		0.37513526		2.77893706		3.80192990		 0.00014502		 0.00014466		-0.00024035
O		1.09282064		6.83700256		1.99072262		-0.00020788		 0.00067353		 0.00063419
O		7.21150767		2.88844343		4.48634446		 0.00020788		-0.00067353		-0.00063419
O		1.98719392		0.95987179		5.05208565		-0.00016062		-0.00041231		-0.00013277
O		6.31713633		8.76557323		1.42498142		 0.00016062		 0.00041231		 0.00013277
O		5.59944998		0.56323517		2.57310408		 0.00032865		 0.00030404		-0.00082594
O		2.70487930		9.16221083		3.90396300		-0.00032865		-0.00030404		 0.00082594
O		6.85704394		5.41857206		5.76547778		-0.00011152		-0.00039991		-0.00012722
O		1.44728534		4.30687393		0.71158930		 0.00011152		 0.00039991		 0.00012722
O		0.72959996		5.02193544		3.28649718		 0.00029239		 0.00034158		-0.00088471
O		7.57472933		4.70351056		3.19057087		-0.00029239		-0.00034158		 0.00088471
