# total energy = -21541.3841796 eV

CRYSTAL
PRIMVEC
		5.70327977		0.00000000		0.00000000
		0.00000000		8.92299793		0.00000000
		-0.15878501		-0.11067214		9.18820043
PRIMECORD
   42 1
Mg		0.00000000		0.00000000		0.00000000		0.00000000		0.00000000		0.00000000
Mg		2.85163989		4.46150010		0.00000000		0.00000000		0.00000000		0.00000000
Mg		2.85163989		1.48648288		0.00000000		-0.00015072		 0.00088565		 0.00011159
Mg		2.85163989		7.43651790		0.00000000		 0.00015072		-0.00088565		-0.00011159
Mg		0.00000000		5.94798298		0.00000000		-0.00015063		 0.00088824		 0.00011178
Mg		0.00000000		2.97501666		0.00000000		 0.00015063		-0.00088824		-0.00011178
Si		4.70844698		1.45641918		2.67376600		-0.00016916		-0.00012669		 0.00001881
Si		0.83604777		7.35591059		6.51443273		 0.00016916		 0.00012669		-0.00001881
Si		1.85680710		5.91791871		2.67376600		-0.00016871		-0.00012347		 0.00001475
Si		3.68768766		2.89440992		6.51443273		 0.00016871		 0.00012347		-0.00001475
Si		1.85680710		2.94067093		2.67376600		-0.00017342		 0.00027655		-0.00005406
Si		3.68768766		5.87165884		6.51443273		 0.00017342		-0.00027655		 0.00005406
Si		4.70844698		7.40217047		2.67376600		-0.00017377		 0.00027888		-0.00005037
Si		0.83604777		1.41015874		6.51443273		 0.00017377		-0.00027888		 0.00005037
O		1.88399806		2.95861174		1.08053198		-0.00019672		 0.00015157		 0.00001212
O		3.66049670		5.85371803		8.10766674		 0.00019672		-0.00015157		-0.00001212
O		4.73563794		7.42011184		1.08053198		-0.00019734		 0.00015226		 0.00000735
O		0.80885625		1.39221793		8.10766674		 0.00019734		-0.00015226		-0.00000735
O		4.73563794		1.47694813		1.08053198		-0.00011622		-0.00002755		 0.00012413
O		0.80885625		7.33538164		8.10766674		 0.00011622		 0.00002755		-0.00012413
O		1.88399806		5.93844767		1.08053198		-0.00011541		-0.00002677		 0.00012851
O		3.66049670		2.87388211		8.10766674		 0.00011541		 0.00002677		-0.00012851
O		1.88114185		-0.01246224		1.03459092		-0.00005983		-0.00003725		 0.00016460
O		3.66335290		-0.09820877		8.15360780		 0.00005983		 0.00003725		-0.00016460
O		4.73278174		4.44903901		1.03459092		-0.00006161		-0.00003636		 0.00032496
O		0.81171302		4.36329077		8.15360780		 0.00006161		 0.00003636		-0.00032496
O		1.94999983		4.42297559		3.19841184		 0.00025947		-0.00000861		-0.00003522
O		3.59449493		4.38935361		5.98978688		-0.00025947		 0.00000861		 0.00003522
O		4.80163972		-0.03852508		3.19841184		 0.00026007		-0.00000753		-0.00003491
O		0.74285504		-0.07214592		5.98978688		-0.00026007		 0.00000753		 0.00003491
O		3.22318689		2.11174085		3.20576280		-0.00002020		 0.00044671		 0.00007869
O		2.32130673		6.70058892		5.98243649		 0.00002020		-0.00044671		-0.00007869
O		0.37154700		6.57324096		3.20576280		-0.00002017		 0.00044334		 0.00007800
O		5.17294661		2.23908882		5.98243649		 0.00002017		-0.00044334		-0.00007800
O		0.37148997		2.27253285		3.20576280		-0.00005570		-0.00016123		 0.00006187
O		5.17300365		6.53979692		5.98243649		 0.00005570		 0.00016123		-0.00006187
O		3.22312986		6.73403295		3.20576280		-0.00005566		-0.00016423		 0.00006216
O		2.32136376		2.07829568		5.98243649		 0.00005566		 0.00016423		-0.00006216
H		1.86707300		-0.00881385		1.86520404		-0.00063621		 0.00001158		-0.00029448
H		3.67742176		8.82114362		7.32299469		 0.00063621		-0.00001158		 0.00029448
H		4.71871289		4.45268568		1.86520404		-0.00063925		 0.00001153		-0.00044290
H		0.82578187		4.35964295		7.32299469		 0.00063925		-0.00001153		 0.00044290
