# total energy = -21542.129327 eV

CRYSTAL
PRIMVEC
		5.57365993		0.00000000		0.00000000
		0.00000000		8.92300038		0.00000000
		-0.15517627		-0.11067059		9.18820069
PRIMECORD
   42 1
Mg		0.00000000		0.00000000		0.00000000		0.00000000		0.00000000		0.00000000
Mg		2.78682997		4.46150019		0.00000000		0.00000000		0.00000000		0.00000000
Mg		2.78682997		1.48648284		0.00000000		 0.00020624		-0.00079524		-0.00013049
Mg		2.78682997		7.43651809		0.00000000		-0.00020624		 0.00079524		 0.00013049
Mg		0.00000000		5.94798303		0.00000000		 0.00020624		-0.00080537		-0.00013005
Mg		0.00000000		2.97501679		0.00000000		-0.00020624		 0.00080537		 0.00013005
Si		4.60143695		1.45641908		2.67376604		-0.00005312		-0.00009259		 0.00001384
Si		0.81704615		7.35591071		6.51443298		 0.00005312		 0.00009259		-0.00001384
Si		1.81460699		5.91791871		2.67376604		-0.00005081		-0.00010410		 0.00002602
Si		3.60387723		2.89440996		6.51443298		 0.00005081		 0.00010410		-0.00002602
Si		1.81460699		2.94067078		2.67376604		 0.00000859		-0.00006502		-0.00001185
Si		3.60387723		5.87165900		6.51443298		-0.00000859		 0.00006502		 0.00001185
Si		4.60143695		7.40217097		2.67376604		 0.00000598		-0.00007568		-0.00002377
Si		0.81704727		1.41015881		6.51443298		-0.00000598		 0.00007568		 0.00002377
O		1.84117997		2.95861184		1.08053201		 0.00076223		 0.00003704		 0.00011821
O		3.57730314		5.85371795		8.10766701		-0.00076223		-0.00003704		-0.00011821
O		4.62800994		7.42011203		1.08053201		 0.00076507		 0.00003438		 0.00013296
O		0.79047317		1.39221776		8.10766701		-0.00076507		-0.00003438		-0.00013296
O		4.62800994		1.47694798		1.08053201		 0.00048023		-0.00037709		-0.00003368
O		0.79047317		7.33538181		8.10766701		-0.00048023		 0.00037709		 0.00003368
O		1.84117997		5.93844817		1.08053201		 0.00047758		-0.00037975		-0.00004875
O		3.57730314		2.87388217		8.10766701		-0.00047758		 0.00037975		 0.00004875
O		1.83838924		-0.01246215		1.03459112		 0.00000519		-0.00005843		 0.00041458
O		3.58009498		-0.09820900		8.15360790		-0.00000519		 0.00005843		-0.00041458
O		4.62521920		4.44903916		1.03459112		 0.00001002		-0.00005858		-0.00007535
O		0.79326502		4.36329119		8.15360790		-0.00001002		 0.00005858		 0.00007535
O		1.90568171		4.42297617		3.19841187		-0.00085663		 0.00010336		-0.00002730
O		3.51280196		4.38935418		5.98978715		 0.00085663		-0.00010336		 0.00002730
O		4.69251167		-0.03852514		3.19841187		-0.00085730		 0.00010235		-0.00002294
O		0.72597088		-0.07214601		5.98978715		 0.00085730		-0.00010235		 0.00002294
O		3.14993273		2.11174103		3.20576297		-0.00018619		-0.00040100		 0.00048366
O		2.26854982		6.70058876		5.98243717		 0.00018619		 0.00040100		-0.00048366
O		0.36310276		6.57324066		3.20576297		-0.00018716		-0.00039458		 0.00048477
O		5.05537979		2.23908913		5.98243717		 0.00018716		 0.00039458		-0.00048477
O		0.36304703		2.27253276		3.20576297		-0.00024827		 0.00013361		 0.00042031
O		5.05543608		6.53979703		5.98243717		 0.00024827		-0.00013361		-0.00042031
O		3.14987699		6.73403295		3.20576297		-0.00024741		 0.00014004		 0.00041945
O		2.26860611		2.07829573		5.98243717		 0.00024741		-0.00014004		-0.00041945
H		1.82463902		-0.00881419		1.86520412		 0.00008698		-0.00005441		-0.00068972
H		3.59384409		8.82114397		7.32299490		-0.00008698		 0.00005441		 0.00068972
H		4.61146899		4.45268600		1.86520412		 0.00008844		-0.00005453		-0.00024479
H		0.80701412		4.35964267		7.32299490		-0.00008844		 0.00005453		 0.00024479
