# total energy = -8762.1046593 eV	

CRYSTAL	
PRIMVEC	
		2.99911295		0.00000000		0.00000000	
		-1.49955495		2.59730732		0.00000000	
		0.00000000		0.00000000		11.70919914	
PRIMCOORD
   11 1	
H		0.00000000		1.73153852		5.63790202		0.00000000		-0.00000000		 0.00024552	
H		1.49955617		0.86576911		6.07130901		0.00000000		0.00000000		-0.00028715	
Mg		0.00000000		0.00000000		8.09869706		-0.00000000		 0.00000001		-0.00015731	
Mg		0.00000000		0.00000000		3.61050361		-0.00000001		0.00000000		 0.00015492	
Mg		1.49955647		0.86576911		10.51038881		0.00000000		-0.00000000		-0.00027996	
Mg		0.00000000		1.73153852		1.19881033		 0.00000001		0.00000000		 0.00028321	
O		1.49955617		0.86576911		2.40234445		-0.00000001		-0.00000002		-0.00008639	
O		0.00000000		1.73153852		9.30685652		-0.00000000		 0.00000002		 0.00008319	
O		0.00000000		1.73153852		4.67355298		0.00000000		-0.00000001		-0.00037577	
O		1.49955647		0.86576911		7.03563488		 0.00000001		0.00000000		 0.00042132	
O		0.00000000		0.00000000		0.00000000		-0.00000000		-0.00000000		-0.00000157	
