# total energy = -8761.96041897 eV	

CRYSTAL	
PRIMVEC	
		2.96817270		0.00000000		0.00000000	
		-1.48408635		2.57051236		0.00000000	
		0.00000000		0.00000000		11.54412862	
PRIMCOORD
   11 1	
H		0.00000000		1.71367602		5.60184632		-0.00000000		0.00000000		 0.00027532	
H		1.48408666		0.85683816		5.94232436		0.00000000		-0.00000000		-0.00043356	
Mg		0.00000000		0.00000000		7.96587041		0.00000000		0.00000000		-0.00002623	
Mg		0.00000000		0.00000000		3.57826095		-0.00000001		0.00000000		 0.00001671	
Mg		1.48408666		0.85683816		10.35588692		0.00000000		-0.00000001		-0.00040791	
Mg		0.00000000		1.71367572		1.18823834		 0.00000001		 0.00000001		 0.00042128	
O		1.48408696		0.85683786		2.38101364		-0.00000001		 0.00000001		-0.00002232	
O		0.00000000		1.71367602		9.16311833		 0.00000001		-0.00000001		 0.00000917	
O		0.00000000		1.71367572		4.63777129		-0.00000001		0.00000000		-0.00026808	
O		1.48408666		0.85683786		6.90631099		 0.00000001		0.00000000		 0.00044212	
O		0.00000000		0.00000000		0.00000000		0.00000000		-0.00000000		-0.00000651	
