# total energy = -8762.04090855 eV	

CRYSTAL	
PRIMVEC	
		2.98294026		0.00000000		0.00000000	
		-1.49146861		2.58330176		0.00000000	
		0.00000000		0.00000000		11.62222142	
PRIMCOORD
   11 1	
H		0.00000000		1.72220097		5.61953051		0.00000000		0.00000000		 0.00050246	
H		1.49146922		0.86110079		6.00268420		0.00000000		-0.00000000		-0.00047606	
Mg		0.00000000		0.00000000		8.02804229		 0.00000003		-0.00000002		 0.00000671	
Mg		0.00000000		0.00000000		3.59417974		-0.00000003		 0.00000002		-0.00000526	
Mg		1.49146922		0.86110079		10.42889414		0.00000000		-0.00000002		-0.00050471	
Mg		0.00000000		1.72220097		1.19332881		0.00000000		0.00000000		 0.00050251	
O		1.49146983		0.86110049		2.39142378		 0.00000001		0.00000000		-0.00000457	
O		0.00000000		1.72220128		9.23079795		-0.00000001		-0.00000000		 0.00000669	
O		0.00000000		1.72220097		4.65542653		-0.00000002		 0.00000001		-0.00047511	
O		1.49146891		0.86110079		6.96680312		 0.00000003		0.00000000		 0.00044632	
O		0.00000000		0.00000000		0.00000000		-0.00000000		0.00000000		 0.00000105	
