# total energy = -8761.76337273 eV	

CRYSTAL	
PRIMVEC	
		3.09924279		-0.00000610		0.00000305	
		-1.54962444		2.68401987		0.00000000	
		0.00003353		-0.00000305		15.57197198	
PRIMCOORD
   11 1	
H		0.00001067		1.78937310		5.63717538		-0.00000010		-0.00000100		 0.00004996	
H		1.54964182		0.89464830		9.93477130		 0.00000001		 0.00000044		-0.00001862	
Mg		0.00002073		0.00000000		11.93767660		 0.00000068		-0.00000028		-0.00006333	
Mg		0.00000884		-0.00003078		3.63427740		-0.00000050		 0.00000184		 0.00007364	
Mg		1.54964822		0.89467603		14.36624391		-0.00000025		 0.00000111		 0.00042110	
Mg		0.00000640		1.78936761		1.20573203		 0.00000006		-0.00000279		-0.00040509	
O		1.54963877		0.89466140		2.41562428		-0.00000187		 0.00000118		-0.00028834	
O		0.00001097		1.78935481		13.15638519		 0.00000217		-0.00000105		 0.00027064	
O		-0.00000518		1.78930970		4.67799453		 0.00000148		 0.00000142		 0.00000351	
O		1.54965096		0.89466537		10.89396923		-0.00000124		 0.00000081		-0.00003156	
O		0.00000366		0.00002103		0.00002743		-0.00000043		-0.00000168		-0.00001191	
