# total energy = -8761.63356833 eV	

CRYSTAL	
PRIMVEC	
		3.13977204		0.00000610		-0.00000305	
		-1.56988145		2.71911759		0.00000305	
		-0.00001219		0.00000305		15.88969244	
PRIMCOORD
   11 1	
H		0.00000000		1.81274760		5.60612937		 0.00000014		-0.00000010		 0.00009898	
H		1.56987749		0.90637852		10.28360452		-0.00000014		 0.00000008		-0.00029960	
Mg		-0.00001128		0.00000488		12.27622434		-0.00000030		 0.00000016		-0.00067906	
Mg		0.00000000		-0.00000396		3.61346352		 0.00000004		 0.00000024		 0.00066960	
Mg		1.56987170		0.90637730		14.69215251		 0.00000006		 0.00000011		 0.00036847	
Mg		0.00000366		1.81274516		1.19754297		 0.00000028		-0.00000013		-0.00036169	
O		1.56989456		0.90637426		2.40001060		-0.00000128		-0.00000016		 0.00001100	
O		-0.00001494		1.81275217		13.48969372		 0.00000075		-0.00000045		-0.00002213	
O		0.00000000		1.81274303		4.64627552		 0.00000048		-0.00000002		-0.00017324	
O		1.56987231		0.90638157		11.24334925		-0.00000001		-0.00000016		 0.00039235	
O		0.00000000		0.00000000		0.00001006		-0.00000002		 0.00000044		-0.00000468	
