# total energy = -9215.2226708 eV

CRYSTAL
PRIMVEC
		5.32600074		0.00000000		0.63911880
		-2.66299769		4.61245353		-0.31956208
		0.87455934		0.00000000		7.28799810
PRIMECORD
   18 1
Mg		2.16509172		0.00000000		3.52809993		 0.00029637		0.00000000		-0.00035929
Mg		-0.48565895		1.53041072		3.21000979		 0.00041699		 0.00068023		-0.00057304
Mg		2.17734196		3.08204012		3.52956972		 0.00041699		-0.00068023		-0.00057304
Si		0.06471705		3.07496794		0.53931177		-0.00048848		 0.00024888		-0.00016979
Si		2.72771795		1.53748397		0.85887225		-0.00048848		-0.00024888		-0.00016979
H		3.74523618		0.00000000		5.70742289		 0.00026346		-0.00000000		 0.00062747
H		-0.91235074		2.68905917		5.14851298		-0.00024606		 0.00010713		 0.00059150
H		1.75064910		1.92339221		5.46807292		-0.00024606		-0.00010713		 0.00059150
H		0.17228823		0.00000000		1.43573617		 0.00072832		0.00000000		 0.00053094
O		0.25458380		3.07496794		2.12153701		 0.00025294		-0.00033428		 0.00006145
O		2.91758470		1.53748397		2.44109695		 0.00025294		 0.00033428		 0.00006145
O		3.56784604		0.00000000		7.55372980		-0.00064731		0.00000000		-0.00040513
O		-0.48257774		2.33851287		7.06767873		-0.00021259		-0.00068410		 0.00068890
O		2.18042209		2.27393797		7.38723867		-0.00021259		 0.00068410		 0.00068890
O		4.05070487		0.00000000		4.70972006		-0.00077265		0.00000000		 0.00028243
O		-1.25399084		3.06266781		4.07315570		 0.00035118		 0.00069068		-0.00071253
O		1.40900900		1.54978411		4.39271564		 0.00035118		-0.00069068		-0.00071253
O		0.26586580		0.00000000		2.21555177		-0.00001611		0.00000000		-0.00044941
