# total energy = -9215.21545229 eV

CRYSTAL
PRIMVEC
		5.32600018		0.00000000		-0.21303979
		-2.66299743		4.61244906		0.10651990
		-0.29152253		0.00000000		7.28799925
PRIMECORD
   18 1
Mg		1.63452501		0.00000000		3.24535275		-0.00008602		0.00000000		 0.00059090
Mg		-1.01622508		1.53041119		3.35138279		-0.00058260		 0.00011262		 0.00012801
Mg		1.64677501		3.08204001		3.24486290		-0.00058260		-0.00011262		 0.00012801
Si		-0.02157209		3.07496782		0.53931188		-0.00022981		-0.00002883		-0.00010354
Si		2.64142800		1.53748391		0.43279198		-0.00022981		 0.00002883		-0.00010354
H		2.89166607		0.00000000		5.21061393		 0.00025042		-0.00000000		-0.00067728
H		-1.76592176		2.68905919		5.39691715		-0.00021046		 0.00002630		-0.00030236
H		0.89707780		1.92339200		5.29039672		-0.00021046		-0.00002630		-0.00030236
H		-0.05742874		0.00000000		1.43573619		 0.00019445		0.00000000		 0.00033991
O		-0.08486092		3.07496782		2.12153692		 0.00041810		-0.00000838		-0.00030535
O		2.57813917		1.53748391		2.01501702		 0.00041810		 0.00000838		-0.00030535
O		2.41109418		0.00000000		7.12168504		 0.00015526		0.00000000		-0.00008596
O		-1.63932917		2.33851311		7.28370199		-0.00029491		 0.00007429		-0.00014575
O		1.02367092		2.27393809		7.17718209		-0.00029491		-0.00007429		-0.00014575
O		3.36505011		0.00000000		4.14388518		 0.00014179		0.00000000		 0.00071844
O		-1.93964609		3.06266771		4.35607320		 0.00018858		-0.00047923		 0.00020711
O		0.72335400		1.54978401		4.24955276		 0.00018858		 0.00047923		 0.00020711
O		-0.08862195		0.00000000		2.21555203		 0.00076633		-0.00000000		 0.00015773
