# total energy = -9215.20800181 eV

CRYSTAL
PRIMVEC
		5.32599843		0.00000000		0.42607881
		-2.66300188		4.61244934		-0.21304207
		0.58304058		0.00000000		7.28800196
PRIMECORD
   18 1
Mg		2.03245013		0.00000000		3.45741271		-0.00032405		-0.00000000		-0.00005800
Mg		-0.61830022		1.53041074		3.24535269		-0.00007948		 0.00003199		 0.00036832
Mg		2.04470007		3.08204020		3.45839316		-0.00007948		-0.00003199		 0.00036832
Si		0.04314485		3.07496818		0.53931174		 0.00015133		 0.00001893		 0.00008129
Si		2.70614514		1.53748382		0.75235221		 0.00015133		-0.00001893		 0.00008129
H		3.53184306		0.00000000		5.58322083		-0.00037665		0.00000000		-0.00017502
H		-1.12574407		2.68905870		5.21061386		 0.00002663		 0.00003272		 0.00069475
H		1.53725621		1.92339223		5.42365380		 0.00002663		-0.00003272		 0.00069475
H		0.11485881		0.00000000		1.43573624		 0.00013017		0.00000000		-0.00045656
O		0.16972304		3.07496818		2.12153691		-0.00001353		-0.00002005		 0.00044705
O		2.83272279		1.53748382		2.33457685		-0.00001353		 0.00002005		 0.00044705
O		3.27865784		0.00000000		7.44571871		-0.00054387		0.00000000		-0.00012354
O		-0.77176499		2.33851305		7.12168510		 0.00009411		 0.00010907		-0.00041433
O		1.89123476		2.27393789		7.33472504		 0.00009411		-0.00010907		-0.00041433
O		3.87929191		0.00000000		4.56826099		 0.00068834		-0.00000000		-0.00049327
O		-1.42540391		3.06266803		4.14388500		 0.00013228		-0.00044770		-0.00029167
O		1.23759583		1.54978398		4.35692601		 0.00013228		 0.00044770		-0.00029167
O		0.17724387		0.00000000		2.21555208		-0.00019663		0.00000000		-0.00046446
