# total energy = -4138.30238154 eV

CRYSTAL
PRIMVEC
		3.30778802		0.00000000		-0.52924756
		-1.65389233		2.86462849		0.26462210
		-0.79725972		0.00000000		4.98288161
PRIMECORD
   4 1
Mg		-0.00172216		1.90975188		0.01076209		-0.00074058		-0.00089504		 0.00058657
Mg		1.25354098		0.95487594		2.23757878		-0.00074058		 0.00089504		 0.00058657
O		-0.32084982		1.90975188		2.00531196		 0.00074058		-0.00070017		-0.00058657
O		0.93441299		0.95487594		4.23212966		 0.00074058		 0.00070017		-0.00058657
