# total energy = -4138.70150051 eV

CRYSTAL
PRIMVEC
		3.30778721		0.00000000		0.39693367
		-1.65389194		2.86462874		-0.19846850
		0.59794744		0.00000000		4.98288093
PRIMECORD
   4 1
Mg		0.00129096		1.90975183		0.01076213		 0.00052357		-0.00016115		 0.00040912
Mg		1.95415796		0.95487591		2.70066977		 0.00052357		 0.00016115		 0.00040912
O		0.24063685		1.90975183		2.00531175		-0.00052357		-0.00028229		-0.00040912
O		2.19350385		0.95487591		4.69521971		-0.00052357		 0.00028229		-0.00040912
