# total energy = -7174.75905074 eV	

CRYSTAL	
PRIMVEC	
		3.11199889		0.24895929		0.00000000	
		-1.34039343		2.57059166		0.00000000	
		0.00000000		0.00000000		12.76799776	
PRIMCOORD
   12 1	
O		0.14373703		1.79671399		5.27829060		-0.00004724		 0.00004901		 0.00034452	
O		1.62786780		1.02283695		7.48970842		 0.00004724		-0.00004901		-0.00034452	
O		0.14373703		1.79671399		10.41613313		 0.00005869		-0.00042851		 0.00009806	
O		1.62786780		1.02283695		2.35186495		-0.00005869		 0.00042851		-0.00009806	
O		0.00000000		0.00000000		0.00000000		0.00000000		0.00000000		0.00000000	
H		0.14373703		1.79671399		4.28877070		-0.00014958		-0.00005500		-0.00054069	
H		1.62786780		1.02283695		8.47922738		 0.00014958		 0.00005500		 0.00054069	
H		0.14373703		1.79671399		9.42533635		 0.00040746		-0.00005539		-0.00030158	
H		1.62786780		1.02283695		3.34266172		-0.00040746		 0.00005539		 0.00030158	
Mg		0.00000000		0.00000000		6.38399951		0.00000000		0.00000000		0.00000000	
Mg		1.62786874		1.02283695		11.53333297		 0.00002507		-0.00002579		 0.00073054	
Mg		0.14373703		1.79671399		1.23466604		-0.00002507		 0.00002579		-0.00073054	
