# total energy = -7173.3754116 eV	

CRYSTAL	
PRIMVEC	
		3.11200130		0.49792159		0.00000000	
		-1.12479017		2.44610984		0.00000000	
		0.00000000		0.00000000		12.76800109	
PRIMCOORD
   12 1	
O		0.28747408		1.79671407		5.27829131		 0.00000829		-0.00059811		-0.00080974	
O		1.69973706		1.14731705		7.48970946		-0.00000829		 0.00059811		 0.00080974	
O		0.28747408		1.79671407		10.41613458		 0.00027266		 0.00000506		 0.00005539	
O		1.69973706		1.14731705		2.35186525		-0.00027266		-0.00000506		-0.00005539	
O		0.00000000		0.00000000		0.00000000		0.00000000		0.00000000		0.00000000	
H		0.28747408		1.79671407		4.28877114		 0.00004825		 0.00023064		-0.00055496	
H		1.69973706		1.14731705		8.47922837		-0.00004825		-0.00023064		 0.00055496	
H		0.28747408		1.79671407		9.42533739		 0.00008170		-0.00087709		 0.00028036	
H		1.69973706		1.14731705		3.34266212		-0.00008170		 0.00087709		-0.00028036	
Mg		0.00000000		0.00000000		6.38400023		0.00000000		0.00000000		0.00000000	
Mg		1.69973706		1.14731705		11.53333448		-0.00042362		 0.00017900		-0.00094250	
Mg		0.28747408		1.79671407		1.23466598		 0.00042362		-0.00017900		 0.00094250	
