# total energy = -7175.1160821 eV	

CRYSTAL	
PRIMVEC	
		3.11199981		0.12447987		0.00000000	
		-1.44819656		2.63282956		0.00000000	
		0.00000000		0.00000000		12.76799734	
PRIMCOORD
   12 1	
O		0.07186900		1.79671372		5.27829055		-0.00040236		 0.00000060		 0.00046900	
O		1.59193394		0.96059695		7.48970835		 0.00040236		-0.00000060		-0.00046900	
O		0.07186900		1.79671372		10.41613293		 0.00024134		 0.00030406		-0.00060210	
O		1.59193394		0.96059695		2.35186472		-0.00024134		-0.00030406		 0.00060210	
O		0.00000000		0.00000000		0.00000000		0.00000000		0.00000000		0.00000000	
H		0.07186900		1.79671372		4.28877059		-0.00028406		 0.00015315		-0.00052731	
H		1.59193394		0.96059695		8.47922706		 0.00028406		-0.00015315		 0.00052731	
H		0.07186900		1.79671372		9.42533603		 0.00062517		 0.00017299		-0.00054949	
H		1.59193394		0.96059695		3.34266162		-0.00062517		-0.00017299		 0.00054949	
Mg		0.00000000		0.00000000		6.38399929		0.00000000		0.00000000		0.00000000	
Mg		1.59193394		0.96059695		11.53333289		 0.00040040		 0.00034855		 0.00087714	
Mg		0.07186900		1.79671372		1.23466600		-0.00040040		-0.00034855		-0.00087714	
