# total energy = -7174.17650048 eV	

CRYSTAL	
PRIMVEC	
		3.11200028		-0.37343928		0.00000000	
		-1.87940774		2.88179029		0.00000000	
		0.00000000		0.00000000		12.76800013	
PRIMCOORD
   12 1	
O		-0.21560590		1.79671387		5.27829069		 0.00046847		 0.00001423		 0.00066019	
O		1.44819687		0.71163683		7.48970850		-0.00046847		-0.00001423		-0.00066019	
O		-0.21560590		1.79671387		10.41613316		-0.00007428		-0.00063384		 0.00044891	
O		1.44819687		0.71163683		2.35186477		 0.00007428		 0.00063384		-0.00044891	
O		0.00000000		0.00000000		0.00000000		0.00000000		0.00000000		0.00000000	
H		-0.21560590		1.79671387		4.28877078		 0.00012003		 0.00000279		-0.00076374	
H		1.44819687		0.71163683		8.47922747		-0.00012003		-0.00000279		 0.00076374	
H		-0.21560590		1.79671387		9.42533633		-0.00043775		-0.00050206		-0.00035364	
H		1.44819687		0.71163683		3.34266160		 0.00043775		 0.00050206		 0.00035364	
Mg		0.00000000		0.00000000		6.38399944		0.00000000		0.00000000		0.00000000	
Mg		1.44819687		0.71163683		11.53333329		-0.00037929		 0.00023496		 0.00061241	
Mg		-0.21560590		1.79671387		1.23466589		 0.00037929		-0.00023496		-0.00061241	
