# total energy = -7175.11608196 eV	

CRYSTAL	
PRIMVEC	
		3.11199981		-0.12447987		0.00000000	
		-1.66380325		2.75730943		0.00000000	
		0.00000000		0.00000000		12.76799734	
PRIMCOORD
   12 1	
O		-0.07186900		1.79671372		5.27829055		 0.00040246		 0.00000059		 0.00046897	
O		1.52006587		0.83611677		7.48970835		-0.00040246		-0.00000059		-0.00046897	
O		-0.07186900		1.79671372		10.41613293		-0.00024120		 0.00030417		-0.00060203	
O		1.52006587		0.83611677		2.35186472		 0.00024120		-0.00030417		 0.00060203	
O		0.00000000		0.00000000		0.00000000		0.00000000		0.00000000		0.00000000	
H		-0.07186900		1.79671372		4.28877059		 0.00028408		 0.00015317		-0.00052761	
H		1.52006587		0.83611677		8.47922706		-0.00028408		-0.00015317		 0.00052761	
H		-0.07186900		1.79671372		9.42533603		-0.00062520		 0.00017300		-0.00054926	
H		1.52006587		0.83611677		3.34266162		 0.00062520		-0.00017300		 0.00054926	
Mg		0.00000000		0.00000000		6.38399929		0.00000000		0.00000000		0.00000000	
Mg		1.52006587		0.83611677		11.53333289		-0.00040060		 0.00034843		 0.00087671	
Mg		-0.07186900		1.79671372		1.23466600		 0.00040060		-0.00034843		-0.00087671	
