# total energy = -24715.6533045 eV	

CRYSTAL	
PRIMVEC	
		9.20099977		0.00000000		0.00000000	
		0.00000000		8.62099635		0.00000000	
		-0.97849872		0.00000000		4.80947299	
PRIMCOORD
   40 1	
Si		2.54259968		0.78882195		1.01576001		 0.00014875		-0.00028678		-0.00056791	
Si		5.67990229		7.83217900		3.79371022		-0.00014875		 0.00028678		 0.00056791	
Si		6.16915073		0.78882195		1.38897464		-0.00014905		-0.00028644		 0.00056758	
Si		2.05335124		7.83217900		3.42049467		 0.00014905		 0.00028644		-0.00056758	
Si		7.14309956		5.09932197		1.01576001		 0.00021752		-0.00024120		-0.00053159	
Si		1.07940241		3.52167898		3.79371022		-0.00021752		 0.00024120		 0.00053159	
Si		1.56865085		5.09932197		1.38897464		-0.00021788		-0.00024070		 0.00053111	
Si		6.65385112		3.52167898		3.42049467		 0.00021788		 0.00024070		-0.00053111	
Mg		-0.24462422		7.80804017		1.20236825		-0.00000012		 0.00077640		 0.00000001	
Mg		-0.73387266		0.81295986		3.60710290		 0.00000012		-0.00077640		-0.00000001	
Mg		4.35587567		3.49754016		1.20236825		-0.00000011		 0.00077131		-0.00000002	
Mg		3.86662722		5.12345987		3.60710290		 0.00000011		-0.00077131		 0.00000002	
Mg		-0.24462422		2.36387762		1.20236825		 0.00000004		-0.00054665		-0.00000001	
Mg		-0.73387266		6.25712149		3.60710290		-0.00000004		 0.00054665		 0.00000001	
Mg		4.35587567		6.67437763		1.20236825		 0.00000004		-0.00053993		-0.00000004	
Mg		3.86662722		1.94662240		3.60710290		-0.00000004		 0.00053993		 0.00000004	
O		0.98190953		0.78795890		0.66851612		 0.00000366		-0.00011401		 0.00047765	
O		7.24059152		7.83304113		4.14095411		-0.00000366		 0.00011401		-0.00047765	
O		7.72984088		0.78795890		1.73621854		-0.00000343		-0.00011408		-0.00047761	
O		0.49266109		7.83304113		3.07325170		 0.00000343		 0.00011408		 0.00047761	
O		5.58241126		5.09845983		0.66851612		-0.00004146		-0.00011946		 0.00046564	
O		2.64009163		3.52254112		4.14095411		 0.00004146		 0.00011946		-0.00046564	
O		3.12934099		5.09845983		1.73621854		 0.00004173		-0.00011951		-0.00046550	
O		5.09316190		3.52254112		3.07325170		-0.00004173		 0.00011951		 0.00046550	
O		3.13727133		2.04834957		1.76507563		 0.00034279		-0.00024788		 0.00032579	
O		5.08523064		6.57265046		3.04439460		-0.00034279		 0.00024788		-0.00032579	
O		5.57448000		2.04834957		0.63965994		-0.00034262		-0.00024805		-0.00032568	
O		2.64802197		6.57265046		4.16981121		 0.00034262		 0.00024805		 0.00032568	
O		7.73777122		6.35884959		1.76507563		 0.00031350		-0.00029561		 0.00029998	
O		0.48473075		2.26214952		3.04439460		-0.00031350		 0.00029561		-0.00029998	
O		0.97398011		6.35884959		0.63965994		-0.00031324		-0.00029611		-0.00029976	
O		7.24852278		2.26214952		4.16981121		 0.00031324		 0.00029611		 0.00029976	
O		2.38943063		0.52846678		4.40066613		 0.00006182		-0.00001331		-0.00016826	
O		5.83307042		8.09253325		0.40880502		-0.00006182		 0.00001331		 0.00016826	
O		5.34382197		0.52846678		2.81353968		-0.00006168		-0.00001347		 0.00016831	
O		2.87867999		8.09253325		1.99592964		 0.00006168		 0.00001347		-0.00016831	
O		6.98993144		4.83896680		4.40066613		 0.00005159		-0.00001786		-0.00017135	
O		1.23257053		3.78203323		0.40880502		-0.00005159		 0.00001786		 0.00017135	
O		0.74332209		4.83896680		2.81353968		-0.00005141		-0.00001808		 0.00017148	
O		7.47918080		3.78203323		1.99592964		 0.00005141		 0.00001808		-0.00017148	
