# total energy = -10316.9505482 eV

CRYSTAL
PRIMVEC
		4.98000023		0.19919981		0.00000000
		0.35400230		8.84999780		0.00000000
		0.00000000		0.00000000		2.75000202
PRIMECORD
   14 1
Si		0.00000000		0.00000000		0.00000000		0.00000000		0.00000000		0.00000000
Si		2.66699977		4.52459980		0.00000000		0.00000000		0.00000000		0.00000000
Mg		0.52570897		2.96247916		1.37500001		 0.00026261		-0.00013650		0.00000000
Mg		4.80829107		6.08672094		1.37500001		-0.00026261		 0.00013650		0.00000000
Mg		2.37698482		7.45445082		1.37500001		-0.00037038		 0.00048430		0.00000000
Mg		2.95701522		1.59474978		1.37500001		 0.00037038		-0.00048430		0.00000000
O		1.09353110		0.43958725		1.37500001		-0.00001242		-0.00017676		-0.00000000
O		4.24046894		8.60961384		1.37500001		 0.00001242		 0.00017676		-0.00000000
O		1.60518723		4.87797313		1.37500001		 0.00003123		-0.00012935		0.00000000
O		3.72881281		4.17122697		1.37500001		-0.00003123		 0.00012935		0.00000000
O		2.06392992		2.81018111		0.00000000		-0.00039062		-0.00050177		0.00000000
O		3.27007012		6.23901998		0.00000000		 0.00039062		 0.00050177		0.00000000
O		0.82162994		7.17840896		0.00000000		 0.00037815		 0.00008954		-0.00000000
O		4.51237010		1.87079113		0.00000000		-0.00037815		-0.00008954		-0.00000000
