# total energy = -10316.1284565 eV

CRYSTAL
PRIMVEC
		4.97999864		-0.39839889		0.00000000
		-0.70800047		8.85000086		0.00000000
		0.00000000		0.00000000		2.74999900
PRIMECORD
   14 1
Si		0.00000000		0.00000000		0.00000000		0.00000000		0.00000000		0.00000000
Si		2.13600008		4.22579999		0.00000000		0.00000000		0.00000000		0.00000000
Mg		0.17216907		2.91353614		1.37500000		-0.00049728		 0.00069563		-0.00000000
Mg		4.09983110		5.53806384		1.37500000		 0.00049728		-0.00069563		-0.00000000
Mg		1.49244486		7.20459420		1.37500000		-0.00012084		-0.00073258		0.00000000
Mg		2.77955481		1.24700577		1.37500000		 0.00012084		 0.00073258		0.00000000
O		1.04595384		0.31026603		1.37500000		 0.00017595		-0.00006911		-0.00000000
O		3.22604583		8.14133394		1.37500000		-0.00017595		 0.00006911		-0.00000000
O		1.02661017		4.70849388		1.37500000		-0.00066159		-0.00022324		0.00000000
O		3.24539100		3.74310709		1.37500000		 0.00066159		 0.00022324		0.00000000
O		1.73608993		2.57562323		0.00000000		 0.00055862		 0.00060041		0.00000000
O		2.53590924		5.87597824		0.00000000		-0.00055862		-0.00060041		0.00000000
O		-0.03721004		7.11416722		0.00000000		-0.00031484		 0.00009538		0.00000000
O		4.30921021		1.33743325		0.00000000		 0.00031484		-0.00009538		0.00000000
