# total energy = -10316.1284565 eV

CRYSTAL
PRIMVEC
		4.97999864		0.39839889		0.00000000
		0.70800047		8.85000086		0.00000000
		0.00000000		0.00000000		2.74999900
PRIMECORD
   14 1
Si		0.00000000		0.00000000		0.00000000		0.00000000		0.00000000		0.00000000
Si		2.84400005		4.62419988		0.00000000		0.00000000		0.00000000		0.00000000
Mg		0.64355522		2.97879422		1.37500000		 0.00012086		-0.00073259		0.00000000
Mg		5.04444489		6.26960604		1.37500000		-0.00012086		 0.00073259		0.00000000
Mg		2.67183098		7.53773601		1.37500000		 0.00049728		 0.00069570		0.00000000
Mg		3.01616913		1.71066424		1.37500000		-0.00049728		-0.00069570		0.00000000
O		1.10938991		0.48269389		1.37500000		 0.00066160		-0.00022327		-0.00000000
O		4.57861019		8.76570686		1.37500000		-0.00066160		 0.00022327		-0.00000000
O		1.79804622		4.93446591		1.37500000		-0.00017596		-0.00006910		0.00000000
O		3.88995389		4.31393384		1.37500000		 0.00017596		 0.00006910		0.00000000
O		2.17321013		2.88836724		0.00000000		 0.00031482		 0.00009540		-0.00000000
O		3.51478998		6.36003402		0.00000000		-0.00031482		-0.00009540		-0.00000000
O		1.10791012		7.19982311		0.00000000		-0.00055859		 0.00060047		-0.00000000
O		4.58009098		2.04857714		0.00000000		 0.00055859		-0.00060047		-0.00000000
