# total energy = -10314.7599046 eV

CRYSTAL
PRIMVEC
		4.98000074		-0.59759889		0.00000000
		-1.06200010		8.85000087		0.00000000
		0.00000000		0.00000000		2.74999814
PRIMECORD
   14 1
Si		0.00000000		0.00000000		0.00000000		0.00000000		0.00000000		0.00000000
Si		1.95899982		4.12619999		0.00000000		0.00000000		0.00000000		0.00000000
Mg		0.05432184		2.89722179		1.37500008		 0.00006186		-0.00008577		0.00000000
Mg		3.86367780		5.35517869		1.37500008		-0.00006186		 0.00008577		0.00000000
Mg		1.19759780		7.12130872		1.37500008		 0.00020515		-0.00008066		-0.00000000
Mg		2.72040184		1.13109175		1.37500008		-0.00020515		 0.00008066		-0.00000000
O		1.03009406		0.26715923		1.37500008		-0.00008107		 0.00011037		0.00000000
O		2.88790508		7.98524075		1.37500008		 0.00008107		-0.00011037		0.00000000
O		0.83374988		4.65200074		1.37500008		 0.00016595		 0.00038139		-0.00000000
O		3.08424975		3.60039974		1.37500008		-0.00016595		-0.00038139		-0.00000000
O		1.62681118		2.49743719		0.00000000		-0.00001722		-0.00004118		0.00000000
O		2.29118896		5.75496379		0.00000000		 0.00001722		 0.00004118		0.00000000
O		-0.32348886		7.09275268		0.00000000		-0.00049328		 0.00000373		0.00000000
O		4.24149000		1.15964679		0.00000000		 0.00049328		-0.00000373		0.00000000
