# total energy = -4138.57537074 eV

CRYSTAL
PRIMVEC
		3.30778802		-0.52924756		0.00000000
		-2.11223343		3.12925059		0.00000000
		0.00000000		0.00000000		4.98288161
PRIMECORD
   4 1
Mg		-0.30556006		1.90975188		0.01076209		-0.00058016		-0.00092382		 0.00051888
Mg		1.50111297		0.69025283		2.50220189		 0.00058016		 0.00092382		 0.00051888
O		-0.30556006		1.90975188		2.00531196		 0.00090706		 0.00009266		-0.00051888
O		1.50111297		0.69025283		4.49675277		-0.00090706		-0.00009266		-0.00051888
