# total energy = -22449.8661109 eV

CRYSTAL
PRIMVEC
		8.82667464		0.00000000		0.00000000
		0.00000000		7.67700027		0.00000000
		-0.51153228		0.00000000		4.72194434
PRIMECORD
   40 1
Ca		6.47947296		0.51819818		0.42544660		-0.00005839		 0.00067369		 0.00068668
Ca		1.83567470		7.15880297		4.29649598		 0.00005839		-0.00067369		-0.00068668
Ca		2.09143907		4.35669655		1.93552469		 0.00005839		 0.00067369		-0.00068668
Ca		6.22370859		3.32030284		2.78641877		-0.00005839		-0.00067369		 0.00068668
Mg		1.92980677		1.25979596		1.90388812		-0.00020810		-0.00055790		 0.00024946
Mg		6.38534001		6.41720342		2.81805622		 0.00020810		 0.00055790		-0.00024946
Mg		6.64110350		5.09829610		0.45708405		 0.00020810		-0.00055790		-0.00024946
Mg		1.67404328		2.57870417		4.26485853		-0.00020810		 0.00055790		 0.00024946
Si		4.27198166		1.27438204		2.18484294		-0.00005081		 0.00017093		-0.00020699
Si		4.04316600		6.40261734		2.53709964		 0.00005081		-0.00017093		 0.00020699
Si		4.29892949		5.11288218		0.17612835		 0.00005081		 0.00017093		 0.00020699
Si		4.01621817		2.56411809		4.54581511		-0.00005081		-0.00017093		-0.00020699
Si		0.14418638		6.55846111		1.24375966		-0.00006078		-0.00011537		-0.00051575
Si		8.17096040		1.11853916		3.47818380		 0.00006078		 0.00011537		 0.00051575
Si		8.42672477		2.71996097		1.11721163		 0.00006078		-0.00011537		 0.00051575
Si		-0.11157711		4.95703841		3.60473095		-0.00006078		 0.00011537		-0.00051575
O		3.41731064		1.29971637		0.53310732		 0.00029711		-0.00053139		-0.00023915
O		4.89783702		6.37728390		4.18883615		-0.00029711		 0.00053139		 0.00023915
O		5.15360051		5.13821562		1.82786397		-0.00029711		-0.00053139		 0.00023915
O		3.16154715		2.53878377		2.89407861		 0.00029711		 0.00053139		-0.00023915
O		3.41004011		3.70875861		0.40467126		-0.00020792		-0.00067354		-0.00009864
O		4.90510755		3.96824078		4.31727309		 0.00020792		 0.00067354		 0.00009864
O		5.16087192		7.54725874		1.95630092		 0.00020792		-0.00067354		 0.00009864
O		3.15427573		0.12974064		2.76564166		-0.00020792		 0.00067354		-0.00009864
O		5.29520509		2.25089560		1.26217564		 0.00019440		-0.00014235		 0.00024096
O		3.01994257		5.42610379		3.45976783		-0.00019440		 0.00014235		-0.00024096
O		3.27570694		6.08939661		1.09879565		-0.00019440		-0.00014235		-0.00024096
O		5.03944071		1.58760366		3.62314693		 0.00019440		 0.00014235		 0.00024096
O		1.14690191		2.69923329		1.02371684		-0.00002120		 0.00031632		 0.00033158
O		7.16824575		4.97776697		3.69822574		 0.00002120		-0.00031632		-0.00033158
O		7.42401012		6.53773254		1.33725356		 0.00002120		 0.00031632		-0.00033158
O		0.89113754		1.13926684		3.38468901		-0.00002120		-0.00031632		 0.00033158
O		0.83066070		0.22186465		0.93636101		-0.00005842		-0.00034919		 0.00017645
O		7.48448696		7.45513474		3.78558157		 0.00005842		 0.00034919		-0.00017645
O		7.74025045		4.06036566		1.42461028		 0.00005842		-0.00034919		-0.00017645
O		0.57489721		3.61663460		3.29733318		-0.00005842		 0.00034919		 0.00017645
O		0.91949500		5.44299275		0.32817488		 0.00015941		 0.00017439		-0.00060687
O		7.39565178		2.23400664		4.39376770		-0.00015941		-0.00017439		 0.00060687
O		7.65141527		1.60449261		2.03279729		-0.00015941		 0.00017439		 0.00060687
O		0.66373063		6.07250677		2.68914705		 0.00015941		-0.00017439		-0.00060687
