# total energy = -22455.5252516 eV

CRYSTAL
PRIMVEC
		9.27932488		0.00000000		0.00000000
		0.00000000		7.67699890		0.00000000
		-0.53775544		0.00000000		4.72194221
PRIMECORD
   40 1
Ca		6.81175289		0.51819833		0.42544684		-0.00024471		-0.00012122		 0.00012795
Ca		1.92981192		7.15880335		4.29649630		 0.00024471		 0.00012122		-0.00012795
Ca		2.19869242		4.35669685		1.93552520		 0.00024471		-0.00012122		-0.00012795
Ca		6.54287331		3.32030297		2.78641887		-0.00024471		 0.00012122		 0.00012795
Mg		2.02877220		1.25979641		1.90388827		-0.00008699		 0.00020434		-0.00079769
Mg		6.71279353		6.41720434		2.81805580		 0.00008699		-0.00020434		 0.00079769
Mg		6.98167403		5.09829585		0.45708377		 0.00008699		 0.00020434		 0.00079769
Mg		1.75989170		2.57870397		4.26485937		-0.00008699		-0.00020434		-0.00079769
Si		4.49105776		1.27438165		2.18484302		-0.00019026		-0.00022037		-0.00014364
Si		4.25050704		6.40261817		2.53710012		 0.00019026		 0.00022037		 0.00014364
Si		4.51938754		5.11288203		0.17612808		 0.00019026		-0.00022037		 0.00014364
Si		4.22217819		2.56411780		4.54581506		-0.00019026		 0.00022037		-0.00014364
Si		0.15158056		6.55846072		1.24375988		-0.00039359		 0.00000574		-0.00000801
Si		8.58998517		1.11853910		3.47818419		 0.00039359		-0.00000574		 0.00000801
Si		8.85886475		2.71996128		1.11721216		 0.00039359		 0.00000574		 0.00000801
Si		-0.11729902		4.95703855		3.60473098		-0.00039359		-0.00000574		-0.00000801
O		3.59255651		1.29971606		0.53310742		-0.00009474		 0.00039471		-0.00005543
O		5.14900829		6.37728376		4.18883572		 0.00009474		-0.00039471		 0.00005543
O		5.41788787		5.13821551		1.82786368		 0.00009474		 0.00039471		 0.00005543
O		3.32367694		2.53878431		2.89407853		-0.00009474		-0.00039471		-0.00005543
O		3.58491406		3.70875871		0.40467136		 0.00005609		-0.00026367		 0.00008292
O		5.15665167		3.96824111		4.31727271		-0.00005609		 0.00026367		-0.00008292
O		5.42553217		7.54725909		1.95630068		-0.00005609		-0.00026367		-0.00008292
O		3.31603356		0.12974074		2.76564154		 0.00005609		 0.00026367		 0.00008292
O		5.56675422		2.25089604		1.26217563		-0.00009401		-0.00033451		-0.00019100
O		3.17481151		5.42610378		3.45976751		 0.00009401		 0.00033451		 0.00019100
O		3.44369201		6.08939735		1.09879641		 0.00009401		-0.00033451		 0.00019100
O		5.29787372		1.58760433		3.62314673		-0.00009401		 0.00033451		-0.00019100
O		1.20571743		2.69923312		1.02371739		-0.00028077		-0.00030209		-0.00035156
O		7.53584830		4.97776670		3.69822575		 0.00028077		 0.00030209		 0.00035156
O		7.80472787		6.53773257		1.33725372		 0.00028077		-0.00030209		 0.00035156
O		0.93683693		1.13926726		3.38468850		-0.00028077		 0.00030209		-0.00035156
O		0.87325871		0.22186495		0.93636090		 0.00041405		-0.00011195		 0.00023609
O		7.86830610		7.45513488		3.78558224		-0.00041405		 0.00011195		-0.00023609
O		8.13718567		4.06036625		1.42461021		-0.00041405		-0.00011195		-0.00023609
O		0.60437913		3.61663450		3.29733293		 0.00041405		 0.00011195		 0.00023609
O		0.96664861		5.44299308		0.32817539		-0.00027167		 0.00009350		-0.00025791
O		7.77491619		2.23400674		4.39376775		 0.00027167		-0.00009350		 0.00025791
O		8.04379669		1.60449270		2.03279665		 0.00027167		 0.00009350		 0.00025791
O		0.69776904		6.07250712		2.68914742		-0.00027167		-0.00009350		-0.00025791
