# total energy = -18384.693054 eV	

CRYSTAL	
PRIMVEC	
		4.81499869		0.00000000		0.38519893	
		0.00000000		11.08000120		0.00000000	
		0.50960062		0.00000000		6.37000056	
PRIMCOORD
   28 1	
Mg		0.00000000		0.00000000		0.00000000		0.00000000		0.00000000		0.00000000	
Mg		2.40749983		5.54000012		0.19259995		0.00000000		0.00000000		-0.00000000	
Mg		0.25479983		0.00000000		3.18499980		0.00000000		0.00000000		0.00000000	
Mg		2.66230014		5.54000012		3.37760023		0.00000000		0.00000000		-0.00000000	
Ca		4.86054486		2.84755984		1.97115197		-0.00014921		-0.00013982		-0.00003556	
Ca		0.46405494		8.23243992		4.78404800		 0.00014921		 0.00013982		 0.00003556	
Ca		2.70784486		2.69243980		4.96355182		-0.00014921		 0.00013982		-0.00003556	
Ca		2.61675494		8.38755995		1.79164816		 0.00014921		-0.00013982		 0.00003556	
Si		2.06784513		0.95288008		1.74773611		-0.00035994		 0.00073333		 0.00001827	
Si		3.25675514		10.12712015		5.00746387		 0.00035994		-0.00073333		-0.00001827	
Si		4.73014527		4.58712003		5.12533585		-0.00035994		-0.00073333		 0.00001827	
Si		0.59445500		6.49288020		1.62986412		 0.00035994		 0.00073333		-0.00001827	
O		3.80606007		0.74235990		1.88679318		 0.00066434		-0.00067444		 0.00016552	
O		1.51854021		10.33763985		4.86840727		-0.00066434		 0.00067444		-0.00016552	
O		1.65336007		4.79764022		4.87919303		 0.00066434		 0.00067444		 0.00016552	
O		3.67124020		6.28236001		1.87600694		-0.00066434		-0.00067444		-0.00016552	
O		3.67124020		5.14112009		1.87600694		-0.00072692		 0.00073036		-0.00080803	
O		1.65336007		5.93888014		4.87919303		 0.00072692		-0.00073036		 0.00080803	
O		1.51854021		0.39888002		4.86840727		-0.00072692		-0.00073036		-0.00080803	
O		3.80606007		10.68112021		1.88679318		 0.00072692		 0.00073036		 0.00080803	
O		1.21903808		1.69523998		0.28740009		-0.00035904		-0.00007805		 0.00025159	
O		4.10556220		9.38476025		6.46779988		 0.00035904		 0.00007805		-0.00025159	
O		4.10556220		3.84476014		6.46779988		 0.00004208		 0.00030669		 0.00025783	
O		1.21903808		7.23524010		0.28740009		-0.00004208		-0.00030669		-0.00025783	
O		3.88133822		9.38476025		3.66499983		-0.00004208		 0.00030669		-0.00025783	
O		1.44326206		1.69523998		3.09020014		 0.00004208		-0.00030669		 0.00025783	
O		1.44326206		7.23524010		3.09020014		 0.00035904		-0.00007805		-0.00025159	
O		3.88133822		3.84476014		3.66499983		-0.00035904		 0.00007805		 0.00025159	
