# total energy = -18383.3458333 eV	

CRYSTAL	
PRIMVEC	
		4.81500060		0.00000000		-0.57779891	
		0.00000000		11.08000029		0.00000000	
		-0.76439966		0.00000000		6.37000201	
PRIMCOORD
   28 1	
Mg		0.00000000		0.00000000		0.00000000		-0.00000000		0.00000000		-0.00000000	
Mg		2.40749982		5.53999966		-0.28889994		0.00000000		0.00000000		0.00000000	
Mg		-0.38219983		0.00000000		3.18500003		0.00000000		0.00000000		0.00000000	
Mg		2.02529999		5.53999966		2.89610009		0.00000000		0.00000000		0.00000000	
Ca		4.54204500		2.84756004		1.02452289		 0.00037017		 0.00034894		 0.00011136	
Ca		-0.49144502		8.23243976		4.76767682		-0.00037017		-0.00034894		-0.00011136	
Ca		1.75234486		2.69244010		4.49842286		 0.00037017		-0.00034894		 0.00011136	
Ca		2.29825511		8.38755970		1.29377684		-0.00037017		 0.00034894		-0.00011136	
Si		1.74934494		0.95288009		1.35964674		 0.00065253		-0.00058866		 0.00047785	
Si		2.30125504		10.12711971		4.43255296		-0.00065253		 0.00058866		-0.00047785	
Si		3.77464492		4.58712005		4.25574684		 0.00065253		 0.00058866		 0.00047785	
Si		0.27595505		6.49287975		1.53645287		-0.00065253		-0.00058866		-0.00047785	
O		3.48755968		0.74235994		1.15106107		-0.00041545		 0.00031458		-0.00077344	
O		0.56303981		10.33763938		4.64113864		 0.00041545		-0.00031458		 0.00077344	
O		0.69786004		4.79763972		4.62496104		-0.00041545		-0.00031458		-0.00077344	
O		3.35273994		6.28235960		1.16723915		 0.00041545		 0.00031458		 0.00077344	
O		3.35273994		5.14111982		1.16723915		-0.00032845		-0.00003557		 0.00001645	
O		0.69786004		5.93887998		4.62496104		 0.00032845		 0.00003557		-0.00001645	
O		0.56303981		0.39887984		4.64113864		-0.00032845		 0.00003557		 0.00001645	
O		3.48755968		10.68111948		1.15106107		 0.00032845		-0.00003557		-0.00001645	
O		1.18081787		1.69524003		0.04665019		-0.00040143		-0.00043750		-0.00006353	
O		2.86978211		9.38475977		5.74555000		 0.00040143		 0.00043750		 0.00006353	
O		2.86978211		3.84475963		5.74555000		-0.00069864		 0.00027033		-0.00038748	
O		1.18081787		7.23523969		0.04665019		 0.00069864		-0.00027033		 0.00038748	
O		3.20611786		9.38475977		2.94274980		 0.00069864		 0.00027033		 0.00038748	
O		0.84448212		1.69524003		2.84944991		-0.00069864		-0.00027033		-0.00038748	
O		0.84448212		7.23523969		2.84944991		 0.00040143		-0.00043750		 0.00006353	
O		3.20611786		3.84475963		2.94274980		-0.00040143		 0.00043750		-0.00006353	
