# total energy = -49447.0269238 eV

CRYSTAL
PRIMVEC
		14.02400034		0.56095945		0.00000000
		0.20436676		5.10900053		0.00000000
		0.00000000		0.00000000		8.73300518
PRIMECORD
   70 1
Mg		2.49456428		1.77234302		0.04628533		 0.00001768		-0.00038127		 0.00033788
Mg		11.73379579		3.89761695		0.04628533		-0.00001768		 0.00038127		 0.00033788
Mg		9.47472416		1.25684082		4.41278512		-0.00023770		 0.00004935		 0.00023359
Mg		4.75363451		4.41311915		4.41278512		 0.00023770		-0.00004935		 0.00023359
Mg		2.66006332		4.36967315		1.53002224		-0.00007708		-0.00053308		-0.00042371
Mg		11.56829535		1.30028683		1.53002224		 0.00007708		 0.00053308		-0.00042371
Mg		9.63699651		3.77344741		5.89652062		 0.00007828		 0.00007566		-0.00013752
Mg		4.59136357		1.89651257		5.89652062		-0.00007828		-0.00007566		-0.00013752
Mg		4.61450483		1.94997551		2.83123960		-0.00017130		-0.00000248		-0.00014913
Mg		9.61385524		3.71998447		2.83123960		 0.00017130		 0.00000248		-0.00014913
Mg		11.58722745		1.24850531		7.19773939		 0.00008500		 0.00036116		 0.00009175
Mg		2.64113262		4.42145326		7.19773939		-0.00008500		-0.00036116		 0.00009175
Mg		0.10218057		2.55450026		7.23616360		0.00000000		0.00000000		-0.00022180
Mg		7.01200017		0.28047973		2.86966381		0.00000000		0.00000000		-0.00004803
Mg		0.10218057		2.55450026		1.63307159		0.00000000		0.00000000		 0.00053304
Mg		7.01200017		0.28047973		5.99957138		0.00000000		0.00000000		 0.00014420
Mg		0.00000000		0.00000000		5.78561295		0.00000000		0.00000000		-0.00002418
Mg		7.11417934		2.83497999		1.41911317		0.00000000		0.00000000		 0.00039993
Mg		0.00000000		0.00000000		3.01725111		0.00000000		0.00000000		-0.00055710
Mg		7.11417934		2.83497999		7.38375089		0.00000000		0.00000000		-0.00007773
Si		0.00000000		0.00000000		0.06724412		0.00000000		0.00000000		-0.00018875
Si		7.11417934		2.83497999		4.43374390		0.00000000		0.00000000		-0.00002891
Si		5.28432000		0.28329379		0.04453795		 0.00020710		-0.00025690		-0.00010347
Si		8.94404007		5.38666619		0.04453795		-0.00020710		 0.00025690		-0.00010347
Si		12.39273648		2.97420090		4.41103773		-0.00008919		 0.00042723		-0.00006035
Si		1.83562360		2.69576049		4.41103773		 0.00008919		-0.00042723		-0.00006035
O		5.96901812		3.85422569		8.67710854		 0.00016345		-0.00016957		-0.00054980
O		8.25934196		1.81573429		8.67710854		-0.00016345		 0.00016957		-0.00054980
O		12.99785633		4.55568746		4.31060875		 0.00007156		 0.00026102		-0.00043660
O		1.23050234		1.11427252		4.31060875		-0.00007156		-0.00026102		-0.00043660
O		1.23972067		3.58497132		0.04366496		 0.00052296		 0.00016563		-0.00017396
O		12.98863941		2.08498865		0.04366496		-0.00052296		-0.00016563		-0.00017396
O		8.27497719		4.44685560		4.41016474		 0.00011613		-0.00014731		-0.00004067
O		5.95338289		1.22310438		4.41016474		-0.00011613		 0.00014731		-0.00004067
O		3.50348427		0.25235737		3.01375774		 0.00026728		-0.00032136		 0.00064431
O		10.72487580		5.41760261		3.01375774		-0.00026728		 0.00032136		 0.00064431
O		10.60867265		2.86254234		7.38025753		 0.00015941		-0.00014802		 0.00068153
O		3.61968743		2.80741904		7.38025753		-0.00015941		 0.00014802		 0.00068153
O		3.68355748		2.75896527		1.41474541		-0.00012559		-0.00009150		-0.00011867
O		10.54480260		2.91099471		1.41474541		 0.00012559		 0.00009150		-0.00011867
O		10.79283291		5.47132941		5.78124660		 0.00019209		 0.00029624		 0.00000723
O		3.43552857		0.19863057		5.78124660		-0.00019209		-0.00029624		 0.00000723
O		1.09525200		0.77832843		1.33702260		-0.00012072		-0.00018095		 0.00041719
O		13.13310808		4.89163155		1.33702260		 0.00012072		 0.00018095		 0.00041719
O		8.15057606		2.14191689		5.70352239		 0.00029040		 0.00003875		 0.00018756
O		6.07778401		3.52804309		5.70352239		-0.00029040		-0.00003875		 0.00018756
O		6.15973563		3.54662431		3.16047345		 0.00055819		-0.00050903		-0.00060303
O		8.06862445		2.12333567		3.16047345		-0.00055819		 0.00050903		-0.00060303
O		13.21383442		4.87955845		7.52697184		 0.00001519		-0.00023372		-0.00013438
O		1.01452565		0.79040152		7.52697184		-0.00001519		 0.00023372		-0.00013438
O		5.84421559		1.01419442		1.39640700		-0.00035141		-0.00013709		-0.00010380
O		8.38414449		4.65576556		1.39640700		 0.00035141		 0.00013709		-0.00010380
O		12.89586103		2.28582135		5.76290678		 0.00004784		 0.00006740		-0.00038583
O		1.33249905		3.38413863		5.76290678		-0.00004784		-0.00006740		-0.00038583
O		1.38671989		3.54953381		3.03821130		 0.00012233		 0.00013604		 0.00033886
O		12.84164018		2.12042617		3.03821130		-0.00012233		-0.00013604		 0.00033886
O		8.42528732		4.49418375		7.40471108		-0.00011795		-0.00022639		 0.00023284
O		5.80307276		1.17577623		7.40471108		 0.00011795		 0.00022639		 0.00023284
O		3.64441607		0.17026119		0.06113038		 0.00020777		-0.00030392		 0.00025946
O		10.58394541		5.49970019		0.06113038		-0.00020777		 0.00030392		 0.00025946
O		10.75663328		2.95619372		4.42763157		-0.00008030		 0.00016377		 0.00001998
O		3.47172539		2.71376626		4.42763157		 0.00008030		-0.00016377		 0.00001998
H		4.32981595		3.23368815		0.87330052		 0.00020032		-0.00063638		 0.00011390
H		9.89854413		2.43627183		0.87330052		-0.00020032		 0.00063638		 0.00011390
H		11.40312333		5.04686803		5.23980030		-0.00003462		 0.00005358		 0.00017652
H		2.82523534		0.62309194		5.23980030		 0.00003462		-0.00005358		 0.00017652
H		3.82326541		1.07107915		3.92985023		 0.00014879		-0.00016313		-0.00004546
H		10.40509607		4.59888083		3.92985023		-0.00014879		 0.00016313		-0.00004546
H		10.86387495		2.06681867		8.29635001		 0.00019253		 0.00030846		-0.00024156
H		3.36448512		3.60314131		8.29635001		-0.00019253		-0.00030846		-0.00024156
