# total energy = -41275.4435916 eV	

CRYSTAL	
PRIMVEC	
		5.69780014		0.00000000		0.00000000	
		0.00000000		11.46200244		0.00000000	
		0.00000000		0.00000000		8.46352942	
PRIMCOORD
   56 1	
Mg		0.00000000		0.00000000		0.00000000		0.00000000		0.00000000		0.00000000	
Mg		0.00000000		5.73100008		0.00000000		0.00000000		0.00000000		0.00000000	
Mg		2.84890007		5.73100008		4.23176414		0.00000000		0.00000000		0.00000000	
Mg		2.84890007		0.00000000		4.23176414		0.00000000		0.00000000		0.00000000	
Mg		0.00000000		2.86550004		8.20792896		0.00000000		-0.00000002		-0.00083866	
Mg		0.00000000		8.59650012		0.25559876		0.00000000		 0.00000002		 0.00083866	
Mg		2.84890007		8.59650012		3.97616482		0.00000000		 0.00000003		-0.00083868	
Mg		2.84890007		2.86550004		4.48736233		0.00000000		-0.00000003		 0.00083868	
Mg		1.42445004		1.45452815		2.11588207		-0.00000001		-0.00033089		-0.00000001	
Mg		4.27335011		10.00747201		6.34764621		 0.00000001		 0.00033089		 0.00000001	
Mg		4.27335011		4.27647193		2.11588207		0.00000000		 0.00033087		-0.00000001	
Mg		1.42445004		7.18552823		6.34764621		-0.00000000		-0.00033087		 0.00000001	
Mg		4.27335011		7.18552823		6.34764621		0.00000000		-0.00033087		 0.00000001	
Mg		1.42445004		4.27647193		2.11588207		-0.00000000		 0.00033087		-0.00000001	
Mg		1.42445004		10.00747201		6.34764621		-0.00000001		 0.00033089		 0.00000001	
Mg		4.27335011		1.45452815		2.11588207		 0.00000001		-0.00033089		-0.00000001	
Si		0.00000000		1.37429401		5.21776504		0.00000000		-0.00013079		 0.00020747	
Si		0.00000000		10.08770615		3.24576325		0.00000000		 0.00013079		-0.00020747	
Si		0.00000000		4.35670607		5.21776504		0.00000000		 0.00013076		 0.00020745	
Si		0.00000000		7.10529409		3.24576325		0.00000000		-0.00013076		-0.00020745	
Si		2.84890007		7.10529409		0.98600090		0.00000000		-0.00013075		 0.00020742	
Si		2.84890007		4.35670607		7.47752625		-0.00000000		 0.00013075		-0.00020742	
Si		2.84890007		10.08770615		0.98600090		0.00000000		 0.00013073		 0.00020742	
Si		2.84890007		1.37429401		7.47752625		0.00000000		-0.00013073		-0.00020742	
O		0.00000000		2.86550004		1.84674192		0.00000000		-0.00000001		 0.00009275	
O		0.00000000		8.59650012		6.61678636		0.00000000		 0.00000001		-0.00009275	
O		2.84890007		8.59650012		6.07850492		0.00000000		0.00000000		 0.00009266	
O		2.84890007		2.86550004		2.38502222		0.00000000		-0.00000000		-0.00009266	
O		0.00000000		2.86550004		6.05734614		0.00000000		-0.00000002		 0.00085204	
O		0.00000000		8.59650012		2.40618100		-0.00000000		 0.00000002		-0.00085204	
O		2.84890007		8.59650012		1.82558314		0.00000000		 0.00000005		 0.00085209	
O		2.84890007		2.86550004		6.63794514		0.00000000		-0.00000005		-0.00085209	
O		0.00000000		11.34508700		2.17089490		0.00000000		 0.00007480		-0.00033206	
O		0.00000000		0.11691316		6.29263338		0.00000000		-0.00007480		 0.00033206	
O		0.00000000		5.84791324		2.17089490		0.00000000		-0.00007484		-0.00033206	
O		0.00000000		5.61408692		6.29263338		-0.00000000		 0.00007484		 0.00033206	
O		2.84890007		5.61408692		6.40265904		0.00000000		 0.00007478		-0.00033207	
O		2.84890007		5.84791324		2.06086924		0.00000000		-0.00007478		 0.00033207	
O		2.84890007		0.11691316		6.40265904		-0.00000000		-0.00007478		-0.00033207	
O		2.84890007		11.34508700		2.06086924		0.00000000		 0.00007478		 0.00033207	
O		1.48199782		1.40524104		8.40512925		 0.00025899		-0.00015703		-0.00017124	
O		4.21580232		10.05675798		0.05839789		-0.00025899		 0.00015703		 0.00017124	
O		4.21580232		4.32575904		8.40512925		-0.00025898		 0.00015707		-0.00017124	
O		1.48199782		7.13624112		0.05839789		 0.00025898		-0.00015707		 0.00017124	
O		4.21580232		7.13624112		0.05839789		-0.00025898		-0.00015707		 0.00017124	
O		1.48199782		4.32575904		8.40512925		 0.00025898		 0.00015707		-0.00017124	
O		1.48199782		10.05675798		0.05839789		 0.00025899		 0.00015703		 0.00017124	
O		4.21580232		1.40524104		8.40512925		-0.00025899		-0.00015703		-0.00017124	
O		4.33089789		7.13624112		4.17336511		 0.00025897		-0.00015706		-0.00017123	
O		1.36690225		4.32575904		4.29016203		-0.00025897		 0.00015706		 0.00017123	
O		1.36690225		10.05675798		4.17336511		-0.00025897		 0.00015704		-0.00017124	
O		4.33089789		1.40524104		4.29016203		 0.00025897		-0.00015704		 0.00017124	
O		1.36690225		1.40524104		4.29016203		-0.00025897		-0.00015704		 0.00017124	
O		4.33089789		10.05675798		4.17336511		 0.00025897		 0.00015704		-0.00017124	
O		4.33089789		4.32575904		4.29016203		 0.00025897		 0.00015706		 0.00017123	
O		1.36690225		7.13624112		4.17336511		-0.00025897		-0.00015706		-0.00017123	
