# total energy = -41271.8102997 eV	

CRYSTAL	
PRIMVEC	
		5.69780014		0.00000000		0.00000000	
		0.00000000		11.46200244		0.00000000	
		0.00000000		0.00000000		7.63781562	
PRIMCOORD
   56 1	
Mg		0.00000000		0.00000000		0.00000000		0.00000000		0.00000000		0.00000000	
Mg		0.00000000		5.73100008		0.00000000		0.00000000		0.00000000		0.00000000	
Mg		2.84890007		5.73100008		3.81890895		0.00000000		0.00000000		0.00000000	
Mg		2.84890007		0.00000000		3.81890895		0.00000000		0.00000000		0.00000000	
Mg		0.00000000		2.86550004		7.40715500		0.00000000		0.00000000		 0.00022789	
Mg		0.00000000		8.59650012		0.23066176		0.00000000		-0.00000000		-0.00022789	
Mg		2.84890007		8.59650012		3.58824719		0.00000000		 0.00000001		 0.00022788	
Mg		2.84890007		2.86550004		4.04957128		0.00000000		-0.00000001		-0.00022788	
Mg		1.42445004		1.45452815		1.90945419		-0.00000000		 0.00044029		-0.00000000	
Mg		4.27335011		10.00747201		5.72836314		0.00000000		-0.00044029		0.00000000	
Mg		4.27335011		4.27647193		1.90945419		0.00000000		-0.00044031		0.00000000	
Mg		1.42445004		7.18552823		5.72836314		-0.00000000		 0.00044031		-0.00000000	
Mg		4.27335011		7.18552823		5.72836314		0.00000000		 0.00044031		-0.00000000	
Mg		1.42445004		4.27647193		1.90945419		-0.00000000		-0.00044031		0.00000000	
Mg		1.42445004		10.00747201		5.72836314		-0.00000000		-0.00044029		0.00000000	
Mg		4.27335011		1.45452815		1.90945419		0.00000000		 0.00044029		-0.00000000	
Si		0.00000000		1.37429401		4.70871503		0.00000000		-0.00018345		 0.00045247	
Si		0.00000000		10.08770615		2.92910287		0.00000000		 0.00018345		-0.00045247	
Si		0.00000000		4.35670607		4.70871503		0.00000000		 0.00018340		 0.00045245	
Si		0.00000000		7.10529409		2.92910287		0.00000000		-0.00018340		-0.00045245	
Si		2.84890007		7.10529409		0.88980608		0.00000000		-0.00018339		 0.00045242	
Si		2.84890007		4.35670607		6.74801239		0.00000000		 0.00018339		-0.00045242	
Si		2.84890007		10.08770615		0.88980608		0.00000000		 0.00018343		 0.00045242	
Si		2.84890007		1.37429401		6.74801239		0.00000000		-0.00018343		-0.00045242	
O		0.00000000		2.86550004		1.66657178		0.00000000		-0.00000001		-0.00002630	
O		0.00000000		8.59650012		5.97124612		0.00000000		 0.00000001		 0.00002630	
O		2.84890007		8.59650012		5.48548016		0.00000000		0.00000000		-0.00002629	
O		2.84890007		2.86550004		2.15233717		0.00000000		-0.00000000		 0.00002629	
O		0.00000000		2.86550004		5.46638627		0.00000000		 0.00000002		 0.00045566	
O		0.00000000		8.59650012		2.17143220		0.00000000		-0.00000002		-0.00045566	
O		2.84890007		8.59650012		1.64747732		0.00000000		-0.00000001		 0.00045568	
O		2.84890007		2.86550004		5.99034115		0.00000000		 0.00000001		-0.00045568	
O		0.00000000		11.34508700		1.95910026		0.00000000		-0.00019557		-0.00063445	
O		0.00000000		0.11691316		5.67871707		0.00000000		 0.00019557		 0.00063445	
O		0.00000000		5.84791324		1.95910026		0.00000000		 0.00019556		-0.00063447	
O		0.00000000		5.61408692		5.67871707		0.00000000		-0.00019556		 0.00063447	
O		2.84890007		5.61408692		5.77800921		0.00000000		-0.00019555		-0.00063449	
O		2.84890007		5.84791324		1.85980926		0.00000000		 0.00019555		 0.00063449	
O		2.84890007		0.11691316		5.77800921		0.00000000		 0.00019553		-0.00063448	
O		2.84890007		11.34508700		1.85980926		0.00000000		-0.00019553		 0.00063448	
O		1.48199782		1.40524104		7.58511724		 0.00008367		 0.00002028		-0.00022952	
O		4.21580232		10.05675798		0.05270123		-0.00008367		-0.00002028		 0.00022952	
O		4.21580232		4.32575904		7.58511724		-0.00008367		-0.00002030		-0.00022950	
O		1.48199782		7.13624112		0.05270123		 0.00008367		 0.00002030		 0.00022950	
O		4.21580232		7.13624112		0.05270123		-0.00008367		 0.00002030		 0.00022950	
O		1.48199782		4.32575904		7.58511724		 0.00008367		-0.00002030		-0.00022950	
O		1.48199782		10.05675798		0.05270123		 0.00008367		-0.00002028		 0.00022952	
O		4.21580232		1.40524104		7.58511724		-0.00008367		 0.00002028		-0.00022952	
O		4.33089789		7.13624112		3.76620829		 0.00008365		 0.00002031		-0.00022947	
O		1.36690225		4.32575904		3.87161018		-0.00008365		-0.00002031		 0.00022947	
O		1.36690225		10.05675798		3.76620829		-0.00008365		-0.00002028		-0.00022946	
O		4.33089789		1.40524104		3.87161018		 0.00008365		 0.00002028		 0.00022946	
O		1.36690225		1.40524104		3.87161018		-0.00008365		 0.00002028		 0.00022946	
O		4.33089789		10.05675798		3.76620829		 0.00008365		-0.00002028		-0.00022946	
O		4.33089789		4.32575904		3.87161018		 0.00008365		-0.00002031		 0.00022947	
O		1.36690225		7.13624112		3.76620829		-0.00008365		 0.00002031		-0.00022947	
