# total energy = -41273.7553282 eV	

CRYSTAL	
PRIMVEC	
		5.69780014		0.00000000		0.00000000	
		0.00000000		11.46200244		0.00000000	
		0.00000000		0.00000000		7.84424692	
PRIMCOORD
   56 1	
Mg		0.00000000		0.00000000		0.00000000		0.00000000		0.00000000		0.00000000	
Mg		0.00000000		5.73100008		0.00000000		0.00000000		0.00000000		0.00000000	
Mg		2.84890007		5.73100008		3.92212289		0.00000000		0.00000000		0.00000000	
Mg		2.84890007		0.00000000		3.92212289		0.00000000		0.00000000		0.00000000	
Mg		0.00000000		2.86550004		7.60734891		0.00000000		-0.00000000		 0.00013150	
Mg		0.00000000		8.59650012		0.23689573		0.00000000		0.00000000		-0.00013150	
Mg		2.84890007		8.59650012		3.68522602		0.00000000		-0.00000000		 0.00013149	
Mg		2.84890007		2.86550004		4.15901919		0.00000000		0.00000000		-0.00013149	
Mg		1.42445004		1.45452815		1.96106088		-0.00000000		 0.00021030		-0.00000002	
Mg		4.27335011		10.00747201		5.88318434		0.00000000		-0.00021030		 0.00000002	
Mg		4.27335011		4.27647193		1.96106088		-0.00000001		-0.00021032		0.00000000	
Mg		1.42445004		7.18552823		5.88318434		 0.00000001		 0.00021032		-0.00000000	
Mg		4.27335011		7.18552823		5.88318434		-0.00000001		 0.00021032		-0.00000000	
Mg		1.42445004		4.27647193		1.96106088		 0.00000001		-0.00021032		0.00000000	
Mg		1.42445004		10.00747201		5.88318434		-0.00000000		-0.00021030		 0.00000002	
Mg		4.27335011		1.45452815		1.96106088		0.00000000		 0.00021030		-0.00000002	
Si		0.00000000		1.37429401		4.83597710		0.00000000		-0.00024676		 0.00018652	
Si		0.00000000		10.08770615		3.00826811		0.00000000		 0.00024676		-0.00018652	
Si		0.00000000		4.35670607		4.83597710		0.00000000		 0.00024674		 0.00018651	
Si		0.00000000		7.10529409		3.00826811		0.00000000		-0.00024674		-0.00018651	
Si		2.84890007		7.10529409		0.91385478		0.00000000		-0.00024671		 0.00018645	
Si		2.84890007		4.35670607		6.93039043		0.00000000		 0.00024671		-0.00018645	
Si		2.84890007		10.08770615		0.91385478		0.00000000		 0.00024673		 0.00018648	
Si		2.84890007		1.37429401		6.93039043		0.00000000		-0.00024673		-0.00018648	
O		0.00000000		2.86550004		1.71161403		0.00000000		 0.00000001		-0.00024797	
O		0.00000000		8.59650012		6.13263118		0.00000000		-0.00000001		 0.00024797	
O		2.84890007		8.59650012		5.63373692		0.00000000		-0.00000001		-0.00024796	
O		2.84890007		2.86550004		2.21050829		0.00000000		 0.00000001		 0.00024796	
O		0.00000000		2.86550004		5.61412624		0.00000000		 0.00000001		 0.00044877	
O		0.00000000		8.59650012		2.23011897		0.00000000		-0.00000001		-0.00044877	
O		2.84890007		8.59650012		1.69200278		0.00000000		-0.00000001		 0.00044881	
O		2.84890007		2.86550004		6.15224244		0.00000000		 0.00000001		-0.00044881	
O		0.00000000		11.34508700		2.01204878		0.00000000		-0.00020573		-0.00039010	
O		0.00000000		0.11691316		5.83219586		0.00000000		 0.00020573		 0.00039010	
O		0.00000000		5.84791324		2.01204878		0.00000000		 0.00020574		-0.00039010	
O		0.00000000		5.61408692		5.83219586		0.00000000		-0.00020574		 0.00039010	
O		2.84890007		5.61408692		5.93417110		0.00000000		-0.00020570		-0.00039012	
O		2.84890007		5.84791324		1.91007411		0.00000000		 0.00020570		 0.00039012	
O		2.84890007		0.11691316		5.93417110		0.00000000		 0.00020576		-0.00039012	
O		2.84890007		11.34508700		1.91007411		0.00000000		-0.00020576		 0.00039012	
O		1.48199782		1.40524104		7.79012010		-0.00005774		-0.00003251		-0.00013162	
O		4.21580232		10.05675798		0.05412511		 0.00005774		 0.00003251		 0.00013162	
O		4.21580232		4.32575904		7.79012010		 0.00005774		 0.00003252		-0.00013162	
O		1.48199782		7.13624112		0.05412511		-0.00005774		-0.00003252		 0.00013162	
O		4.21580232		7.13624112		0.05412511		 0.00005774		-0.00003252		 0.00013162	
O		1.48199782		4.32575904		7.79012010		-0.00005774		 0.00003252		-0.00013162	
O		1.48199782		10.05675798		0.05412511		-0.00005774		 0.00003251		 0.00013162	
O		4.21580232		1.40524104		7.79012010		 0.00005774		-0.00003251		-0.00013162	
O		4.33089789		7.13624112		3.86799721		-0.00005773		-0.00003248		-0.00013161	
O		1.36690225		4.32575904		3.97624800		 0.00005773		 0.00003248		 0.00013161	
O		1.36690225		10.05675798		3.86799721		 0.00005775		 0.00003250		-0.00013160	
O		4.33089789		1.40524104		3.97624800		-0.00005775		-0.00003250		 0.00013160	
O		1.36690225		1.40524104		3.97624800		 0.00005775		-0.00003250		 0.00013160	
O		4.33089789		10.05675798		3.86799721		-0.00005775		 0.00003250		-0.00013160	
O		4.33089789		4.32575904		3.97624800		-0.00005773		 0.00003248		 0.00013161	
O		1.36690225		7.13624112		3.86799721		 0.00005773		-0.00003248		-0.00013161	
