# total energy = -41274.9690131 eV	

CRYSTAL	
PRIMVEC	
		5.69780014		0.00000000		0.00000000	
		0.00000000		11.46200244		0.00000000	
		0.00000000		0.00000000		8.66995502	
PRIMCOORD
   56 1	
Mg		0.00000000		0.00000000		0.00000000		0.00000000		0.00000000		0.00000000	
Mg		0.00000000		5.73100008		0.00000000		0.00000000		0.00000000		0.00000000	
Mg		2.84890007		5.73100008		4.33497808		0.00000000		0.00000000		0.00000000	
Mg		2.84890007		0.00000000		4.33497808		0.00000000		0.00000000		0.00000000	
Mg		0.00000000		2.86550004		8.40812230		0.00000000		-0.00000001		-0.00078821	
Mg		0.00000000		8.59650012		0.26183329		0.00000000		 0.00000001		 0.00078821	
Mg		2.84890007		8.59650012		4.07314536		0.00000000		0.00000000		-0.00078821	
Mg		2.84890007		2.86550004		4.59681023		0.00000000		-0.00000000		 0.00078821	
Mg		1.42445004		1.45452815		2.16748933		 0.00000001		 0.00032730		-0.00000002	
Mg		4.27335011		10.00747201		6.50246627		-0.00000001		-0.00032730		 0.00000002	
Mg		4.27335011		4.27647193		2.16748933		-0.00000001		-0.00032730		-0.00000002	
Mg		1.42445004		7.18552823		6.50246627		 0.00000001		 0.00032730		 0.00000002	
Mg		4.27335011		7.18552823		6.50246627		-0.00000001		 0.00032730		 0.00000002	
Mg		1.42445004		4.27647193		2.16748933		 0.00000001		-0.00032730		-0.00000002	
Mg		1.42445004		10.00747201		6.50246627		 0.00000001		-0.00032730		 0.00000002	
Mg		4.27335011		1.45452815		2.16748933		-0.00000001		 0.00032730		-0.00000002	
Si		0.00000000		1.37429401		5.34502711		0.00000000		-0.00018433		 0.00030410	
Si		0.00000000		10.08770615		3.32492791		0.00000000		 0.00018433		-0.00030410	
Si		0.00000000		4.35670607		5.34502711		0.00000000		 0.00018432		 0.00030409	
Si		0.00000000		7.10529409		3.32492791		0.00000000		-0.00018432		-0.00030409	
Si		2.84890007		7.10529409		1.01005017		0.00000000		-0.00018432		 0.00030401	
Si		2.84890007		4.35670607		7.65990542		0.00000000		 0.00018432		-0.00030401	
Si		2.84890007		10.08770615		1.01005017		0.00000000		 0.00018433		 0.00030398	
Si		2.84890007		1.37429401		7.65990542		0.00000000		-0.00018433		-0.00030398	
O		0.00000000		2.86550004		1.89178417		0.00000000		-0.00000000		-0.00007659	
O		0.00000000		8.59650012		6.77817142		0.00000000		0.00000000		 0.00007659	
O		2.84890007		8.59650012		6.22676111		0.00000000		 0.00000001		-0.00007666	
O		2.84890007		2.86550004		2.44319334		0.00000000		-0.00000001		 0.00007666	
O		0.00000000		2.86550004		6.20508725		0.00000000		-0.00000001		 0.00033150	
O		0.00000000		8.59650012		2.46486834		0.00000000		 0.00000001		-0.00033150	
O		2.84890007		8.59650012		1.87010917		0.00000000		 0.00000001		 0.00033146	
O		2.84890007		2.86550004		6.79984642		0.00000000		-0.00000001		-0.00033146	
O		0.00000000		11.34508700		2.22384399		0.00000000		 0.00035128		 0.00015965	
O		0.00000000		0.11691316		6.44611218		0.00000000		-0.00035128		-0.00015965	
O		0.00000000		5.84791324		2.22384399		0.00000000		-0.00035126		 0.00015963	
O		0.00000000		5.61408692		6.44611218		0.00000000		 0.00035126		-0.00015963	
O		2.84890007		5.61408692		6.55882093		0.00000000		 0.00035130		 0.00015964	
O		2.84890007		5.84791324		2.11113409		0.00000000		-0.00035130		-0.00015964	
O		2.84890007		0.11691316		6.55882093		0.00000000		-0.00035129		 0.00015962	
O		2.84890007		11.34508700		2.11113409		0.00000000		 0.00035129		-0.00015962	
O		1.48199782		1.40524104		8.61013211		 0.00036005		-0.00018823		-0.00012207	
O		4.21580232		10.05675798		0.05982291		-0.00036005		 0.00018823		 0.00012207	
O		4.21580232		4.32575904		8.61013211		-0.00036005		 0.00018821		-0.00012209	
O		1.48199782		7.13624112		0.05982291		 0.00036005		-0.00018821		 0.00012209	
O		4.21580232		7.13624112		0.05982291		-0.00036005		-0.00018821		 0.00012209	
O		1.48199782		4.32575904		8.61013211		 0.00036005		 0.00018821		-0.00012209	
O		1.48199782		10.05675798		0.05982291		 0.00036005		 0.00018823		 0.00012207	
O		4.21580232		1.40524104		8.61013211		-0.00036005		-0.00018823		-0.00012207	
O		4.33089789		7.13624112		4.27515517		 0.00036005		-0.00018822		-0.00012206	
O		1.36690225		4.32575904		4.39479985		-0.00036005		 0.00018822		 0.00012206	
O		1.36690225		10.05675798		4.27515517		-0.00036005		 0.00018819		-0.00012207	
O		4.33089789		1.40524104		4.39479985		 0.00036005		-0.00018819		 0.00012207	
O		1.36690225		1.40524104		4.39479985		-0.00036005		-0.00018819		 0.00012207	
O		4.33089789		10.05675798		4.27515517		 0.00036005		 0.00018819		-0.00012207	
O		4.33089789		4.32575904		4.39479985		 0.00036005		 0.00018822		 0.00012206	
O		1.36690225		7.13624112		4.27515517		-0.00036005		-0.00018822		-0.00012206	
