# total energy = -41273.1837936 eV	

CRYSTAL	
PRIMVEC	
		5.69780014		0.00000000		0.00000000	
		0.00000000		11.46200244		0.00000000	
		0.00000000		0.00000000		9.08281192	
PRIMCOORD
   56 1	
Mg		0.00000000		0.00000000		0.00000000		0.00000000		0.00000000		0.00000000	
Mg		0.00000000		5.73100008		0.00000000		0.00000000		0.00000000		0.00000000	
Mg		2.84890007		5.73100008		4.54140539		0.00000000		0.00000000		0.00000000	
Mg		2.84890007		0.00000000		4.54140539		0.00000000		0.00000000		0.00000000	
Mg		0.00000000		2.86550004		8.80850900		0.00000000		0.00000000		-0.00032873	
Mg		0.00000000		8.59650012		0.27430122		0.00000000		-0.00000000		 0.00032873	
Mg		2.84890007		8.59650012		4.26710418		0.00000000		0.00000000		-0.00032876	
Mg		2.84890007		2.86550004		4.81570604		0.00000000		-0.00000000		 0.00032876	
Mg		1.42445004		1.45452815		2.27070327		 0.00000001		 0.00005298		 0.00000001	
Mg		4.27335011		10.00747201		6.81210809		-0.00000001		-0.00005298		-0.00000001	
Mg		4.27335011		4.27647193		2.27070327		-0.00000000		-0.00005298		 0.00000001	
Mg		1.42445004		7.18552823		6.81210809		0.00000000		 0.00005298		-0.00000001	
Mg		4.27335011		7.18552823		6.81210809		-0.00000000		 0.00005298		-0.00000001	
Mg		1.42445004		4.27647193		2.27070327		0.00000000		-0.00005298		 0.00000001	
Mg		1.42445004		10.00747201		6.81210809		 0.00000001		-0.00005298		-0.00000001	
Mg		4.27335011		1.45452815		2.27070327		-0.00000001		 0.00005298		 0.00000001	
Si		0.00000000		1.37429401		5.59955297		0.00000000		 0.00036853		 0.00015230	
Si		0.00000000		10.08770615		3.48325724		-0.00000000		-0.00036853		-0.00015230	
Si		0.00000000		4.35670607		5.59955297		0.00000000		-0.00036854		 0.00015230	
Si		0.00000000		7.10529409		3.48325724		0.00000000		 0.00036854		-0.00015230	
Si		2.84890007		7.10529409		1.05814815		0.00000000		 0.00036854		 0.00015235	
Si		2.84890007		4.35670607		8.02466320		0.00000000		-0.00036854		-0.00015235	
Si		2.84890007		10.08770615		1.05814815		0.00000000		-0.00036853		 0.00015235	
Si		2.84890007		1.37429401		8.02466320		-0.00000000		 0.00036853		-0.00015235	
O		0.00000000		2.86550004		1.98186924		0.00000000		 0.00000001		 0.00038263	
O		0.00000000		8.59650012		7.10094097		0.00000000		-0.00000001		-0.00038263	
O		2.84890007		8.59650012		6.52327406		0.00000000		-0.00000000		 0.00038266	
O		2.84890007		2.86550004		2.55953615		0.00000000		0.00000000		-0.00038266	
O		0.00000000		2.86550004		6.50056719		0.00000000		0.00000000		-0.00027028	
O		0.00000000		8.59650012		2.58224302		0.00000000		-0.00000000		 0.00027028	
O		2.84890007		8.59650012		1.95916180		-0.00000000		-0.00000002		-0.00027021	
O		2.84890007		2.86550004		7.12364842		0.00000000		 0.00000002		 0.00027021	
O		0.00000000		11.34508700		2.32974102		0.00000000		 0.00001172		 0.00032181	
O		0.00000000		0.11691316		6.75306919		0.00000000		-0.00001172		-0.00032181	
O		0.00000000		5.84791324		2.32974102		0.00000000		-0.00001174		 0.00032180	
O		0.00000000		5.61408692		6.75306919		0.00000000		 0.00001174		-0.00032180	
O		2.84890007		5.61408692		6.87114641		-0.00000000		 0.00001172		 0.00032182	
O		2.84890007		5.84791324		2.21166380		0.00000000		-0.00001172		-0.00032182	
O		2.84890007		0.11691316		6.87114641		0.00000000		-0.00001172		 0.00032182	
O		2.84890007		11.34508700		2.21166380		-0.00000000		 0.00001172		-0.00032182	
O		1.48199782		1.40524104		9.02013897		 0.00008148		 0.00026560		-0.00014630	
O		4.21580232		10.05675798		0.06267181		-0.00008148		-0.00026560		 0.00014630	
O		4.21580232		4.32575904		9.02013897		-0.00008148		-0.00026561		-0.00014630	
O		1.48199782		7.13624112		0.06267181		 0.00008148		 0.00026561		 0.00014630	
O		4.21580232		7.13624112		0.06267181		-0.00008148		 0.00026561		 0.00014630	
O		1.48199782		4.32575904		9.02013897		 0.00008148		-0.00026561		-0.00014630	
O		1.48199782		10.05675798		0.06267181		 0.00008148		-0.00026560		 0.00014630	
O		4.21580232		1.40524104		9.02013897		-0.00008148		 0.00026560		-0.00014630	
O		4.33089789		7.13624112		4.47873415		 0.00008145		 0.00026559		-0.00014628	
O		1.36690225		4.32575904		4.60407721		-0.00008145		-0.00026559		 0.00014628	
O		1.36690225		10.05675798		4.47873415		-0.00008146		-0.00026558		-0.00014630	
O		4.33089789		1.40524104		4.60407721		 0.00008146		 0.00026558		 0.00014630	
O		1.36690225		1.40524104		4.60407721		-0.00008146		 0.00026558		 0.00014630	
O		4.33089789		10.05675798		4.47873415		 0.00008146		-0.00026558		-0.00014630	
O		4.33089789		4.32575904		4.60407721		 0.00008145		-0.00026559		 0.00014628	
O		1.36690225		7.13624112		4.47873415		-0.00008145		 0.00026559		-0.00014628	
