# total energy = -4022.5117931 eV	

CRYSTAL	
PRIMVEC	
		3.94517795		0.00000000		0.00000000	
		0.00000000		3.94517795		0.00000000	
		0.00000000		0.00000000		3.94517795	
PRIMCOORD
   5 1	
Ca		0.00000000		0.00000000		0.00000000		 0.00000026		 0.00000009		-0.00000029	
Mg		1.97258898		1.97258898		1.97258898		 0.00000019		 0.00000005		-0.00000022	
O		1.97258898		1.97258898		0.00000000		-0.00000007		 0.00000009		-0.00000027	
O		1.97258898		0.00000000		1.97258898		-0.00000062		 0.00000015		 0.00000004	
O		0.00000000		1.97258898		1.97258898		 0.00000024		-0.00000040		 0.00000075	
