# total energy = -4022.48492469 eV	

CRYSTAL	
PRIMVEC	
		3.85456511		0.00000000		0.00000000	
		0.00000000		3.85455722		0.00000000	
		0.00000000		0.00000000		3.85456511	
PRIMCOORD
   5 1	
Ca		0.00000000		0.00000000		0.00000000		 0.00000004		 0.00000001		 0.00000002	
Mg		1.92728295		1.92727861		1.92728255		 0.00000009		 0.00000007		 0.00000003	
O		1.92728374		1.92727861		0.00000000		-0.00000013		-0.00000009		-0.00000004	
O		1.92728255		0.00000000		1.92728255		 0.00000001		-0.00000004		 0.00000001	
O		0.00000000		1.92727821		1.92728334		-0.00000001		 0.00000005		-0.00000002	
