# total energy = -4022.4425451 eV	

CRYSTAL	
PRIMVEC	
		3.82984462		0.00000000		0.00000395	
		0.00000000		3.82982884		0.00000395	
		0.00000395		0.00000395		3.82984462	
PRIMCOORD
   5 1	
Ca		0.00000000		0.00000000		0.00000000		-0.00000000		-0.00000001		-0.00000002	
Mg		1.91492547		1.91491560		1.91492626		 0.00000012		 0.00000003		 0.00000003	
O		1.91492349		1.91491482		0.00000000		-0.00000002		-0.00000005		-0.00000006	
O		1.91492428		0.00000000		1.91492507		-0.00000011		-0.00000002		-0.00000002	
O		0.00000000		1.91491442		1.91492389		 0.00000001		 0.00000005		 0.00000007	
