# total energy = -21541.0575765 eV

CRYSTAL
PRIMVEC
		5.18479989		0.00000000		0.00000000
		0.00000000		8.69992311		0.00000000
		-0.14435001		-0.10790606		9.18819646
PRIMECORD
   42 1
Mg		0.00000000		0.00000000		0.00000000		0.00000000		0.00000000		0.00000000
Mg		2.59239994		4.34996311		0.00000000		0.00000000		0.00000000		0.00000000
Mg		2.59239994		1.44932111		0.00000000		 0.00005859		-0.00000880		 0.00004686
Mg		2.59239994		7.25060459		0.00000000		-0.00005859		 0.00000880		-0.00004686
Mg		0.00000000		5.79928267		0.00000000		 0.00005805		-0.00004125		 0.00004747
Mg		0.00000000		2.90064200		0.00000000		-0.00005805		 0.00004125		-0.00004747
Si		4.28040591		1.42000885		2.67376605		 0.00039085		 0.00022115		 0.00024642
Si		0.76004293		7.17201288		6.51443300		-0.00039085		-0.00022115		-0.00024642
Si		1.68800597		5.76997092		2.67376605		 0.00037561		 0.00016583		 0.00027720
Si		3.35244287		2.82204977		6.51443300		-0.00037561		-0.00016583		-0.00027720
Si		1.68800597		2.86715390		2.67376605		 0.00043045		 0.00013404		 0.00045413
Si		3.35244287		5.72486679		6.51443300		-0.00043045		-0.00013404		-0.00045413
Si		4.28040591		7.21711701		2.67376605		 0.00044689		 0.00008344		 0.00042138
Si		0.76004293		1.37490472		6.51443300		-0.00044689		-0.00008344		-0.00042138
O		1.71272606		2.88464586		1.08053200		-0.00005976		-0.00011963		 0.00012709
O		3.32772382		5.70737483		8.10766705		 0.00005976		 0.00011963		-0.00012709
O		4.30512600		7.23460897		1.08053200		-0.00005775		-0.00012778		 0.00017164
O		0.73532387		1.35741172		8.10766705		 0.00005775		 0.00012778		-0.00017164
O		4.30512600		1.44002373		1.08053200		-0.00019369		 0.00007797		 0.00017718
O		0.73532387		7.15199696		8.10766705		 0.00019369		-0.00007797		-0.00017718
O		1.71272606		5.78998684		1.08053200		-0.00019626		 0.00007006		 0.00013547
O		3.32772382		2.80203488		8.10766705		 0.00019626		-0.00007006		-0.00013547
O		1.71012899		-0.01215006		1.03459104		 0.00016490		-0.00007556		 0.00023376
O		3.33031985		-0.09575392		8.15360801		-0.00016490		 0.00007556		-0.00023376
O		4.30252893		4.33781305		1.03459104		 0.00013710		-0.00007229		-0.00077963
O		0.73792094		4.25420867		8.15360801		-0.00013710		 0.00007229		 0.00077963
O		1.77272715		4.31240079		3.19841180		-0.00031862		-0.00016052		 0.00009231
O		3.26772168		4.27961989		5.98978673		 0.00031862		 0.00016052		-0.00009231
O		4.36512710		-0.03756076		3.19841180		-0.00031005		-0.00016420		 0.00010940
O		0.67532174		-0.07034322		5.98978673		 0.00031005		 0.00016420		-0.00010940
O		2.93016995		2.05894677		3.20576281		 0.00022509		-0.00019630		-0.00008279
O		2.11027888		6.53307392		5.98243676		-0.00022509		 0.00019630		 0.00008279
O		0.33777001		6.40890988		3.20576281		 0.00021412		-0.00017084		-0.00008686
O		4.70267986		2.18311080		5.98243676		-0.00021412		 0.00017084		 0.00008686
O		0.33771816		2.21572008		3.20576281		 0.00011783		 0.00033217		-0.00001685
O		4.70273067		6.37630164		5.98243676		-0.00011783		-0.00033217		 0.00001685
O		2.93011914		6.56568164		3.20576281		 0.00012839		 0.00035816		-0.00001188
O		2.11033073		2.02633905		5.98243676		-0.00012839		-0.00035816		 0.00001188
H		1.69733912		-0.00859381		1.86520376		-0.00067913		 0.00005688		-0.00021572
H		3.34311075		8.60061501		7.32299477		 0.00067913		-0.00005688		 0.00021572
H		4.28973907		4.34136879		1.86520376		-0.00064348		 0.00005633		 0.00068996
H		0.75071081		4.25065190		7.32299477		 0.00064348		-0.00005633		-0.00068996
