# total energy = -24716.0408023 eV

CRYSTAL
PRIMVEC
		9.27319965		0.00000000		0.00000000
		0.00000000		9.38109333		0.00000000
		0.00000000		0.00000000		5.32170382
PRIMECORD
   40 1
Mg		0.00000000		8.48801373		1.33042503		0.00000000		-0.00002528		-0.00000000
Mg		0.00000000		0.89307960		3.99127508		0.00000000		 0.00002528		0.00000000
Mg		4.63659983		5.58362812		3.99127508		0.00000000		 0.00002528		-0.00000000
Mg		4.63659983		3.79746706		1.33042503		0.00000000		-0.00002528		0.00000000
Mg		0.00000000		2.48317555		1.33042503		0.00000000		 0.00010378		0.00000000
Mg		0.00000000		6.89791871		3.99127508		0.00000000		-0.00010378		-0.00000000
Mg		4.63659983		2.20737204		3.99127508		0.00000000		-0.00010378		0.00000000
Mg		4.63659983		7.17372314		1.33042503		0.00000000		 0.00010378		0.00000000
Si		2.70591966		0.85930754		0.35442540		 0.00011160		-0.00013499		 0.00003798
Si		6.56727999		8.52178579		4.96727471		-0.00011160		 0.00013499		-0.00003798
Si		1.93068017		3.83123913		3.01527453		-0.00011160		 0.00013499		 0.00003798
Si		7.34251948		5.54985606		2.30642465		 0.00011160		-0.00013499		-0.00003798
Si		6.56727999		0.85930754		2.30642465		-0.00011160		-0.00013499		-0.00003798
Si		2.70591966		8.52178579		3.01527453		 0.00011160		 0.00013499		 0.00003798
Si		7.34251948		3.83123913		4.96727471		 0.00011160		 0.00013499		-0.00003798
Si		1.93068017		5.54985606		0.35442540		-0.00011160		-0.00013499		 0.00003798
O		1.08774632		0.87807000		0.42147898		 0.00049292		-0.00030417		-0.00007519
O		8.18545333		8.50302333		4.90022113		-0.00049292		 0.00030417		 0.00007519
O		3.54885351		3.81247666		3.08232903		-0.00049292		 0.00030417		-0.00007519
O		5.72434614		5.56861759		2.23937107		 0.00049292		-0.00030417		 0.00007519
O		8.18545333		0.87807000		2.23937107		-0.00049292		-0.00030417		 0.00007519
O		1.08774632		8.50302333		3.08232903		 0.00049292		 0.00030417		-0.00007519
O		5.72434614		3.81247666		4.90022113		 0.00049292		 0.00030417		 0.00007519
O		3.54885351		5.56861759		0.42147898		-0.00049292		-0.00030417		-0.00007519
O		3.49321524		2.35090170		0.37251927		-0.00009872		 0.00011722		-0.00007503
O		5.77998442		7.03019256		4.94918084		 0.00009872		-0.00011722		 0.00007503
O		1.14338459		2.33964496		3.03336932		 0.00009872		-0.00011722		-0.00007503
O		8.12981506		7.04144837		2.28833079		-0.00009872		 0.00011722		 0.00007503
O		5.77998442		2.35090170		2.28833079		 0.00009872		 0.00011722		 0.00007503
O		3.49321524		7.03019256		3.03336932		-0.00009872		-0.00011722		-0.00007503
O		8.12981506		2.33964496		4.94918084		-0.00009872		-0.00011722		 0.00007503
O		1.14338459		7.04144837		0.37251927		 0.00009872		 0.00011722		-0.00007503
O		3.24747452		9.14000034		1.53903585		-0.00071929		-0.00028685		-0.00021566
O		6.02572513		0.24109392		3.78266425		 0.00071929		 0.00028685		 0.00021566
O		1.38912531		4.93164058		4.19988591		 0.00071929		 0.00028685		-0.00021566
O		7.88407434		4.44945275		1.12181420		-0.00071929		-0.00028685		 0.00021566
O		6.02572513		9.14000034		1.12181420		 0.00071929		-0.00028685		 0.00021566
O		3.24747452		0.24109392		4.19988591		-0.00071929		 0.00028685		-0.00021566
O		7.88407434		4.93164058		3.78266425		-0.00071929		 0.00028685		 0.00021566
O		1.38912531		4.44945275		1.53903585		 0.00071929		-0.00028685		-0.00021566
