# total energy = -24713.5874785 eV

CRYSTAL
PRIMVEC
		9.27319965		0.00000000		0.00000000
		0.00000000		7.85393644		0.00000000
		0.00000000		0.00000000		5.32170382
PRIMECORD
   40 1
Mg		0.00000000		7.10624485		1.33042503		0.00000000		 0.00086467		-0.00000000
Mg		0.00000000		0.74769531		3.99127508		0.00000000		-0.00086467		0.00000000
Mg		4.63659983		4.67466446		3.99127508		0.00000000		-0.00086467		-0.00000000
Mg		4.63659983		3.17927477		1.33042503		0.00000000		 0.00086467		0.00000000
Mg		0.00000000		2.07893823		1.33042503		0.00000000		 0.00033103		0.00000000
Mg		0.00000000		5.77500192		3.99127508		0.00000000		-0.00033103		0.00000000
Mg		4.63659983		1.84803185		3.99127508		0.00000000		-0.00033103		0.00000000
Mg		4.63659983		6.00590738		1.33042503		-0.00000000		 0.00033103		0.00000000
Si		2.70591966		0.71942132		0.35442540		-0.00009365		-0.00005729		-0.00020559
Si		6.56727999		7.13451883		4.96727471		 0.00009365		 0.00005729		 0.00020559
Si		1.93068017		3.20754876		3.01527453		 0.00009365		 0.00005729		-0.00020559
Si		7.34251948		4.64639047		2.30642465		-0.00009365		-0.00005729		 0.00020559
Si		6.56727999		0.71942132		2.30642465		 0.00009365		-0.00005729		 0.00020559
Si		2.70591966		7.13451883		3.01527453		-0.00009365		 0.00005729		-0.00020559
Si		7.34251948		3.20754876		4.96727471		-0.00009365		 0.00005729		 0.00020559
Si		1.93068017		4.64639047		0.35442540		 0.00009365		-0.00005729		-0.00020559
O		1.08774632		0.73512919		0.42147898		-0.00036975		 0.00067617		 0.00082309
O		8.18545333		7.11881096		4.90022113		 0.00036975		-0.00067617		-0.00082309
O		3.54885351		3.19184088		3.08232903		 0.00036975		-0.00067617		 0.00082309
O		5.72434614		4.66209742		2.23937107		-0.00036975		 0.00067617		-0.00082309
O		8.18545333		0.73512919		2.23937107		 0.00036975		 0.00067617		-0.00082309
O		1.08774632		7.11881096		3.08232903		-0.00036975		-0.00067617		 0.00082309
O		5.72434614		3.19184088		4.90022113		-0.00036975		-0.00067617		-0.00082309
O		3.54885351		4.66209742		0.42147898		 0.00036975		 0.00067617		 0.00082309
O		3.49321524		1.96819675		0.37251927		 0.00036606		-0.00081477		-0.00037637
O		5.77998442		5.88574248		4.94918084		-0.00036606		 0.00081477		 0.00037637
O		1.14338459		1.95877147		3.03336932		-0.00036606		 0.00081477		-0.00037637
O		8.12981506		5.89516683		2.28833079		 0.00036606		-0.00081477		 0.00037637
O		5.77998442		1.96819675		2.28833079		-0.00036606		-0.00081477		 0.00037637
O		3.49321524		5.88574248		3.03336932		 0.00036606		 0.00081477		-0.00037637
O		8.12981506		1.95877147		4.94918084		 0.00036606		 0.00081477		 0.00037637
O		1.14338459		5.89516683		0.37251927		-0.00036606		-0.00081477		-0.00037637
O		3.24747452		7.65209413		1.53903585		 0.00006321		 0.00010672		 0.00003164
O		6.02572513		0.20184603		3.78266425		-0.00006321		-0.00010672		-0.00003164
O		1.38912531		4.12881610		4.19988591		-0.00006321		-0.00010672		 0.00003164
O		7.88407434		3.72512405		1.12181420		 0.00006321		 0.00010672		-0.00003164
O		6.02572513		7.65209413		1.12181420		-0.00006321		 0.00010672		-0.00003164
O		3.24747452		0.20184603		4.19988591		 0.00006321		-0.00010672		 0.00003164
O		7.88407434		4.12881610		3.78266425		 0.00006321		-0.00010672		-0.00003164
O		1.38912531		3.72512405		1.53903585		-0.00006321		 0.00010672		 0.00003164
