# total energy = -49433.6772121 eV	

CRYSTAL	
PRIMVEC	
		18.68882470		0.00000000		0.00000000	
		0.00000000		8.81910686		0.00000000	
		0.00000000		0.00000000		5.18020581	
PRIMCOORD
   80 1	
Mg		7.03260473		5.76857299		4.48760731		-0.00040621		-0.00030181		-0.00013512	
Mg		11.65621996		3.05052640		0.69259289		 0.00040621		 0.00030181		 0.00013512	
Mg		2.31180762		3.05052640		1.89750627		 0.00040621		 0.00030181		-0.00013512	
Mg		16.37701708		5.76857299		3.28269206		-0.00040621		-0.00030181		 0.00013512	
Mg		11.65621996		1.35902330		3.28269206		 0.00040621		-0.00030181		 0.00013512	
Mg		7.03260473		7.46007609		1.89750627		-0.00040621		 0.00030181		-0.00013512	
Mg		16.37701708		7.46007609		0.69259289		-0.00040621		 0.00030181		 0.00013512	
Mg		2.31180762		1.35902330		4.48760731		 0.00040621		-0.00030181		-0.00013512	
Mg		7.04381803		4.29666546		1.85917363		-0.00015560		 0.00018105		-0.00026039	
Mg		11.64500854		4.52243393		3.32102658		 0.00015560		-0.00018105		 0.00026039	
Mg		2.30059432		4.52243393		4.44927466		 0.00015560		-0.00018105		-0.00026039	
Mg		16.38823038		4.29666546		0.73092554		-0.00015560		 0.00018105		 0.00026039	
Mg		11.64500854		8.70621515		0.73092554		 0.00015560		 0.00018105		 0.00026039	
Mg		7.04381803		0.11288424		4.44927466		-0.00015560		-0.00018105		-0.00026039	
Mg		16.38823038		0.11288424		3.32102658		-0.00015560		-0.00018105		 0.00026039	
Mg		2.30059432		8.70621515		1.85917363		 0.00015560		 0.00018105		-0.00026039	
Si		5.07401591		3.01436913		0.26211824		-0.00002699		-0.00007101		 0.00006378	
Si		13.61480879		5.80473213		4.91808196		 0.00002699		 0.00007101		-0.00006378	
Si		4.27039644		5.80473213		2.85221741		 0.00002699		 0.00007101		 0.00006378	
Si		14.41842826		3.01436913		2.32798279		-0.00002699		-0.00007101		-0.00006378	
Si		13.61480879		7.42391695		2.32798279		 0.00002699		-0.00007101		-0.00006378	
Si		5.07401591		1.39518244		2.85221741		-0.00002699		 0.00007101		 0.00006378	
Si		14.41842826		1.39518244		4.91808196		-0.00002699		 0.00007101		-0.00006378	
Si		4.27039644		7.42391695		0.26211824		 0.00002699		-0.00007101		 0.00006378	
Si		8.85102738		2.97556365		4.13431750		-0.00016104		 0.00041579		-0.00001270	
Si		9.83779732		5.84353574		1.04588270		 0.00016104		-0.00041579		 0.00001270	
Si		0.49338497		5.84353574		1.54421834		 0.00016104		-0.00041579		-0.00001270	
Si		18.19543973		2.97556365		3.63598186		-0.00016104		 0.00041579		 0.00001270	
Si		9.83779732		7.38511335		3.63598186		 0.00016104		 0.00041579		 0.00001270	
Si		8.85102738		1.43398604		1.54421834		-0.00016104		-0.00041579		-0.00001270	
Si		18.19543973		1.43398604		1.04588270		-0.00016104		-0.00041579		 0.00001270	
Si		0.49338497		7.38511335		4.13431750		 0.00016104		 0.00041579		-0.00001270	
O		3.42939933		3.00466776		0.17612722		 0.00013231		-0.00029845		-0.00003378	
O		15.25942537		5.81443350		5.00407298		-0.00013231		 0.00029845		 0.00003378	
O		5.91501302		5.81443350		2.76622639		-0.00013231		 0.00029845		-0.00003378	
O		12.77381168		3.00466776		2.41397381		 0.00013231		-0.00029845		 0.00003378	
O		15.25942537		7.41421745		2.41397381		-0.00013231		-0.00029845		 0.00003378	
O		3.42939933		1.40488381		2.76622639		 0.00013231		 0.00029845		-0.00003378	
O		12.77381168		1.40488381		5.00407298		 0.00013231		 0.00029845		 0.00003378	
O		5.91501302		7.41421745		0.17612722		-0.00013231		-0.00029845		-0.00003378	
O		5.81970001		4.43512535		0.22274836		 0.00074770		-0.00030752		-0.00032462	
O		12.86912469		4.38397404		4.95745184		-0.00074770		 0.00030752		 0.00032462	
O		3.52471234		4.38397404		2.81284940		-0.00074770		 0.00030752		-0.00032462	
O		15.16411236		4.43512535		2.36735080		 0.00074770		-0.00030752		 0.00032462	
O		12.86912469		0.02557566		2.36735080		-0.00074770		-0.00030752		 0.00032462	
O		5.81970001		8.79352560		2.81284940		 0.00074770		 0.00030752		-0.00032462	
O		15.16411236		8.79352560		4.95745184		 0.00074770		 0.00030752		 0.00032462	
O		3.52471234		0.02557566		0.22274836		-0.00074770		-0.00030752		-0.00032462	
O		5.65336947		1.96136786		4.30992705		-0.00049719		-0.00021765		 0.00019674	
O		13.03545523		6.85773153		0.87027316		 0.00049719		 0.00021765		-0.00019674	
O		3.69104288		6.85773153		1.71982788		 0.00049719		 0.00021765		 0.00019674	
O		14.99778182		1.96136786		3.46037419		-0.00049719		-0.00021765		-0.00019674	
O		13.03545523		6.37091755		3.46037419		 0.00049719		-0.00021765		-0.00019674	
O		5.65336947		2.44818184		1.71982788		-0.00049719		 0.00021765		 0.00019674	
O		14.99778182		2.44818184		0.87027316		-0.00049719		 0.00021765		-0.00019674	
O		3.69104288		6.37091755		4.30992705		 0.00049719		-0.00021765		 0.00019674	
O		10.50685725		3.01084068		4.13379982		 0.00002739		-0.00018049		-0.00015076	
O		8.18196745		5.80825871		1.04640038		-0.00002739		 0.00018049		 0.00015076	
O		17.52637980		5.80825871		1.54370066		-0.00002739		 0.00018049		-0.00015076	
O		1.16244490		3.01084068		3.63650141		 0.00002739		-0.00018049		 0.00015076	
O		8.18196745		7.42039037		3.63650141		-0.00002739		-0.00018049		 0.00015076	
O		10.50685725		1.39870902		1.54370066		 0.00002739		 0.00018049		-0.00015076	
O		1.16244490		1.39870902		1.04640038		 0.00002739		 0.00018049		 0.00015076	
O		17.52637980		7.42039037		4.13379982		-0.00002739		-0.00018049		-0.00015076	
O		8.08104780		4.26491688		3.57433864		-0.00032199		 0.00057724		 0.00017154	
O		10.60777690		4.55418251		1.60586156		 0.00032199		-0.00057724		-0.00017154	
O		1.26336455		4.55418251		0.98423761		 0.00032199		-0.00057724		 0.00017154	
O		17.42546015		4.26491688		4.19596259		-0.00032199		 0.00057724		-0.00017154	
O		10.60777690		8.67446658		4.19596259		 0.00032199		 0.00057724		-0.00017154	
O		8.08104780		0.14463281		0.98423761		-0.00032199		-0.00057724		 0.00017154	
O		17.42546015		0.14463281		1.60586156		-0.00032199		-0.00057724		-0.00017154	
O		1.26336455		8.67446658		3.57433864		 0.00032199		 0.00057724		 0.00017154	
O		8.37820011		1.72060533		3.12366137		 0.00021314		-0.00040258		 0.00042918	
O		10.31062459		7.09849405		2.05654070		-0.00021314		 0.00040258		-0.00042918	
O		0.96621224		7.09849405		0.53356034		-0.00021314		 0.00040258		 0.00042918	
O		17.72261246		1.72060533		4.64663986		 0.00021314		-0.00040258		-0.00042918	
O		10.31062459		6.13015690		4.64663986		-0.00021314		-0.00040258		-0.00042918	
O		8.37820011		2.68894436		0.53356034		 0.00021314		 0.00040258		 0.00042918	
O		17.72261246		2.68894436		2.05654070		 0.00021314		 0.00040258		-0.00042918	
O		0.96621224		6.13015690		3.12366137		-0.00021314		-0.00040258		 0.00042918	
