# total energy = -49428.66139 eV	

CRYSTAL	
PRIMVEC	
		16.86552455		0.00000000		0.00000000	
		0.00000000		8.81910084		0.00000000	
		0.00000000		0.00000000		5.18019527	
PRIMCOORD
   80 1	
Mg		6.34649689		5.76857439		4.48760744		-0.00007013		 0.00051129		-0.00012372	
Mg		10.51902766		3.05052645		0.69259288		 0.00007013		-0.00051129		 0.00012372	
Mg		2.08626539		3.05052645		1.89750644		 0.00007013		-0.00051129		-0.00012372	
Mg		14.77925916		5.76857439		3.28269221		-0.00007013		 0.00051129		 0.00012372	
Mg		10.51902766		1.35902228		3.28269221		 0.00007013		 0.00051129		 0.00012372	
Mg		6.34649689		7.46007688		1.89750644		-0.00007013		-0.00051129		-0.00012372	
Mg		14.77925916		7.46007688		0.69259288		-0.00007013		-0.00051129		 0.00012372	
Mg		2.08626539		1.35902228		4.48760744		 0.00007013		 0.00051129		-0.00012372	
Mg		6.35661620		4.29666609		1.85917447		 0.00012606		 0.00052073		-0.00020250	
Mg		10.50890835		4.52243306		3.32102586		-0.00012606		-0.00052073		 0.00020250	
Mg		2.07614607		4.52243306		4.44927379		-0.00012606		-0.00052073		-0.00020250	
Mg		14.78937679		4.29666609		0.73092654		 0.00012606		 0.00052073		 0.00020250	
Mg		10.50890835		8.70621652		0.73092654		-0.00012606		 0.00052073		 0.00020250	
Mg		6.35661620		0.11288433		4.44927379		 0.00012606		-0.00052073		-0.00020250	
Mg		14.78937679		0.11288433		3.32102586		 0.00012606		-0.00052073		 0.00020250	
Mg		2.07614607		8.70621652		1.85917447		-0.00012606		 0.00052073		-0.00020250	
Si		4.57898991		3.01436846		0.26211724		-0.00027373		-0.00040348		-0.00057505	
Si		12.28653463		5.80473239		4.91808141		 0.00027373		 0.00040348		 0.00057505	
Si		3.85377236		5.80473239		2.85221824		 0.00027373		 0.00040348		-0.00057505	
Si		13.01175219		3.01436846		2.32798208		-0.00027373		-0.00040348		 0.00057505	
Si		12.28653463		7.42391719		2.32798208		 0.00027373		-0.00040348		 0.00057505	
Si		4.57898991		1.39518197		2.85221824		-0.00027373		 0.00040348		-0.00057505	
Si		13.01175219		1.39518197		4.91808141		-0.00027373		 0.00040348		 0.00057505	
Si		3.85377236		7.42391719		0.26211724		 0.00027373		-0.00040348		-0.00057505	
Si		7.98751243		2.97556426		4.13431855		 0.00026096		 0.00010897		 0.00042315	
Si		8.87801212		5.84353659		1.04588177		-0.00026096		-0.00010897		-0.00042315	
Si		0.44524985		5.84353659		1.54421755		-0.00026096		-0.00010897		 0.00042315	
Si		16.42027470		2.97556426		3.63598109		 0.00026096		 0.00010897		-0.00042315	
Si		8.87801212		7.38511299		3.63598109		-0.00026096		 0.00010897		-0.00042315	
Si		7.98751243		1.43398617		1.54421755		 0.00026096		-0.00010897		 0.00042315	
Si		16.42027470		1.43398617		1.04588177		 0.00026096		-0.00010897		-0.00042315	
Si		0.44524985		7.38511299		4.13431855		-0.00026096		 0.00010897		 0.00042315	
O		3.09482375		3.00466741		0.17612667		-0.00064169		 0.00019643		-0.00053728	
O		13.77070079		5.81443344		5.00407366		 0.00064169		-0.00019643		 0.00053728	
O		5.33793852		5.81443344		2.76622768		 0.00064169		-0.00019643		-0.00053728	
O		11.52758603		3.00466741		2.41397265		-0.00064169		 0.00019643		 0.00053728	
O		13.77070079		7.41421783		2.41397265		 0.00064169		 0.00019643		 0.00053728	
O		3.09482375		1.40488302		2.76622768		-0.00064169		-0.00019643		-0.00053728	
O		11.52758603		1.40488302		5.00407366		-0.00064169		-0.00019643		 0.00053728	
O		5.33793852		7.41421783		0.17612667		 0.00064169		 0.00019643		-0.00053728	
O		5.25192434		4.43512530		0.22274973		-0.00014975		 0.00001815		-0.00019298	
O		11.61360020		4.38397554		4.95745229		 0.00014975		-0.00001815		 0.00019298	
O		3.18083793		4.38397554		2.81284905		 0.00014975		-0.00001815		-0.00019298	
O		13.68468662		4.43512530		2.36735128		-0.00014975		 0.00001815		 0.00019298	
O		11.61360020		0.02557488		2.36735128		 0.00014975		 0.00001815		 0.00019298	
O		5.25192434		8.79352428		2.81284905		-0.00014975		-0.00001815		-0.00019298	
O		13.68468662		8.79352428		4.95745229		-0.00014975		-0.00001815		 0.00019298	
O		3.18083793		0.02557488		0.22274973		 0.00014975		 0.00001815		-0.00019298	
O		5.10182118		1.96136774		4.30992746		-0.00019603		 0.00000459		-0.00046019	
O		11.76370337		6.85773141		0.87027456		 0.00019603		-0.00000459		 0.00046019	
O		3.33094110		6.85773141		1.71982645		 0.00019603		-0.00000459		-0.00046019	
O		13.53458345		1.96136774		3.46037388		-0.00019603		 0.00000459		 0.00046019	
O		11.76370337		6.37091817		3.46037388		 0.00019603		 0.00000459		 0.00046019	
O		5.10182118		2.44818268		1.71982645		-0.00019603		-0.00000459		-0.00046019	
O		13.53458345		2.44818268		0.87027456		-0.00019603		-0.00000459		 0.00046019	
O		3.33094110		6.37091817		4.30992746		 0.00019603		 0.00000459		-0.00046019	
O		9.48179790		3.01084019		4.13379910		 0.00023340		 0.00048069		 0.00018149	
O		7.38372665		5.80825897		1.04640123		-0.00023340		-0.00048069		-0.00018149	
O		15.81648892		5.80825897		1.54369978		-0.00023340		-0.00048069		 0.00018149	
O		1.04903563		3.01084019		3.63650055		 0.00023340		 0.00048069		-0.00018149	
O		7.38372665		7.42039061		3.63650055		-0.00023340		 0.00048069		-0.00018149	
O		9.48179790		1.39870855		1.54369978		 0.00023340		-0.00048069		 0.00018149	
O		1.04903563		1.39870855		1.04640123		 0.00023340		-0.00048069		-0.00018149	
O		15.81648892		7.42039061		4.13379910		-0.00023340		 0.00048069		 0.00018149	
O		7.29265281		4.26491674		3.57433760		 0.00009417		 0.00041033		 0.00001108	
O		9.57287173		4.55418241		1.60586273		-0.00009417		-0.00041033		-0.00001108	
O		1.14010946		4.55418241		0.98423828		-0.00009417		-0.00041033		 0.00001108	
O		15.72541509		4.26491674		4.19596205		 0.00009417		 0.00041033		-0.00001108	
O		9.57287173		8.67446717		4.19596205		-0.00009417		 0.00041033		-0.00001108	
O		7.29265281		0.14463368		0.98423828		 0.00009417		-0.00041033		 0.00001108	
O		15.72541509		0.14463368		1.60586273		 0.00009417		-0.00041033		-0.00001108	
O		1.14010946		8.67446717		3.57433760		-0.00009417		 0.00041033		 0.00001108	
O		7.56081465		1.72060564		3.12366043		 0.00002871		 0.00023438		 0.00030362	
O		9.30470989		7.09849352		2.05653990		-0.00002871		-0.00023438		-0.00030362	
O		0.87194762		7.09849352		0.53356111		-0.00002871		-0.00023438		 0.00030362	
O		15.99357693		1.72060564		4.64663922		 0.00002871		 0.00023438		-0.00030362	
O		9.30470989		6.13015606		4.64663922		-0.00002871		 0.00023438		-0.00030362	
O		7.56081465		2.68894310		0.53356111		 0.00002871		-0.00023438		 0.00030362	
O		15.99357693		2.68894310		2.05653990		 0.00002871		-0.00023438		-0.00030362	
O		0.87194762		6.13015606		3.12366043		-0.00002871		 0.00023438		 0.00030362	
