# total energy = -9137.44775998 eV

CRYSTAL
PRIMVEC
		5.33299967		0.00000000		0.00000000
		-2.66649983		4.61851637		0.00000000
		0.00000000		0.00000000		7.32400043
PRIMECORD
   14 1
Mg		1.77428899		0.00000000		3.33974358		-0.00000673		0.00000000		-0.00062518
Mg		-0.88714503		1.53658013		3.33974358		 0.00000336		-0.00000582		-0.00062518
Mg		1.77935481		3.08193357		3.33974358		 0.00000336		 0.00000582		-0.00062518
Si		0.00000000		3.07900896		0.56394818		0.00000000		0.00000000		-0.00022916
Si		2.66649983		1.53950475		0.56394818		0.00000000		-0.00000000		-0.00022916
O		0.00000000		3.07900896		2.13714309		-0.00000000		0.00000000		 0.00086020
O		2.66649983		1.53950475		2.13714309		-0.00000000		-0.00000000		 0.00086020
O		2.67183283		0.00000000		7.27273164		-0.00018467		-0.00000000		-0.00019312
O		-1.33591695		2.31387496		7.27273164		 0.00009234		-0.00015994		-0.00019312
O		1.33058395		2.30463767		7.27273164		 0.00009234		 0.00015994		-0.00019312
O		3.53044578		0.00000000		4.33580766		-0.00025617		0.00000000		 0.00017685
O		-1.76522289		3.05745564		4.33580766		 0.00012809		-0.00022185		 0.00017685
O		0.90127694		1.56105806		4.33580766		 0.00012809		 0.00022185		 0.00017685
O		0.00000000		0.00000000		2.21917209		0.00000000		0.00000000		 0.00066227
