# total energy = -18389.3151719 eV	

CRYSTAL	
PRIMVEC	
		11.10979961		0.00000000		0.00000000	
		0.00000000		6.38940129		0.00000000	
		0.00000000		0.00000000		5.31090639	
PRIMCOORD
   28 1	
Mg		0.00000000		0.00000000		0.00000000		0.00000000		0.00000000		0.00000000	
Mg		5.55489981		0.00000000		2.65545542		0.00000000		-0.00000000		0.00000000	
Mg		0.00000000		3.19469954		0.00000000		0.00000000		0.00000000		0.00000000	
Mg		5.55489981		3.19469954		2.65545542		0.00000000		0.00000000		0.00000000	
Ca		3.07563692		1.59735032		5.19114830		 0.00031458		0.00000000		 0.00012724	
Ca		8.03416380		4.79204986		0.11976142		-0.00031458		0.00000000		-0.00012724	
Ca		2.47926288		4.79204986		2.53569400		-0.00031458		-0.00000000		 0.00012724	
Ca		8.63053673		1.59735032		2.77521572		 0.00031458		0.00000000		-0.00012724	
Si		0.90611526		1.59735032		2.18267789		-0.00056249		0.00000000		 0.00013252	
Si		10.20368436		4.79204986		3.12823183		 0.00056249		0.00000000		-0.00013252	
Si		4.64878455		4.79204986		4.83813331		 0.00056249		0.00000000		 0.00013252	
Si		6.46101617		1.59735032		0.47277752		-0.00056249		0.00000000		-0.00013252	
O		0.86289814		1.59735032		3.96034582		 0.00068058		0.00000000		-0.00004563	
O		10.24690148		4.79204986		1.35056390		-0.00068058		0.00000000		 0.00004563	
O		4.69200167		4.79204986		1.30489040		-0.00068058		0.00000000		-0.00004563	
O		6.41779794		1.59735032		4.00601932		 0.00068058		0.00000000		 0.00004563	
O		4.98841224		1.59735032		1.30648355		-0.00047997		0.00000000		-0.00036501	
O		6.12138849		4.79204986		4.00442617		 0.00047997		0.00000000		 0.00036501	
O		0.56648868		4.79204986		3.96193896		 0.00047997		0.00000000		-0.00036501	
O		10.54331204		1.59735032		1.34897076		-0.00047997		0.00000000		 0.00036501	
O		1.63902874		0.29199553		1.45147199		-0.00037354		 0.00071878		-0.00023307	
O		9.47077088		6.09740354		3.85943884		 0.00037354		-0.00071878		 0.00023307	
O		3.91587107		6.09740354		4.10692740		 0.00037354		-0.00071878		-0.00023307	
O		7.19392854		0.29199553		1.20398343		-0.00037354		 0.00071878		 0.00023307	
O		9.47077088		3.48669618		3.85943884		 0.00037354		 0.00071878		 0.00023307	
O		1.63902874		2.90270401		1.45147199		-0.00037354		-0.00071878		-0.00023307	
O		7.19392854		2.90270401		1.20398343		-0.00037354		-0.00071878		 0.00023307	
O		3.91587107		3.48669618		4.10692740		 0.00037354		 0.00071878		-0.00023307	
