# total energy = -18390.3955672 eV	

CRYSTAL	
PRIMVEC	
		11.10979961		0.00000000		0.00000000	
		0.00000000		6.38940129		0.00000000	
		0.00000000		0.00000000		4.58669188	
PRIMCOORD
   28 1	
Mg		0.00000000		0.00000000		0.00000000		0.00000000		0.00000000		0.00000000	
Mg		5.55489981		0.00000000		2.29334816		0.00000000		0.00000000		-0.00000000	
Mg		0.00000000		3.19469954		0.00000000		0.00000000		0.00000000		0.00000000	
Mg		5.55489981		3.19469954		2.29334816		0.00000000		-0.00000000		0.00000000	
Ca		3.07563692		1.59735032		4.48326520		-0.00091805		0.00000000		 0.00009850	
Ca		8.03416380		4.79204986		0.10343001		 0.00091805		0.00000000		-0.00009850	
Ca		2.47926288		4.79204986		2.18991815		 0.00091805		0.00000000		 0.00009850	
Ca		8.63053673		1.59735032		2.39677817		-0.00091805		0.00000000		-0.00009850	
Si		0.90611526		1.59735032		1.88503970		-0.00008913		0.00000000		-0.00038832	
Si		10.20368436		4.79204986		2.70165441		 0.00008913		0.00000000		 0.00038832	
Si		4.64878455		4.79204986		4.17838786		 0.00008913		0.00000000		-0.00038832	
Si		6.46101617		1.59735032		0.40830847		-0.00008913		0.00000000		 0.00038832	
O		0.86289814		1.59735032		3.42029846		-0.00042984		0.00000000		-0.00075162	
O		10.24690148		4.79204986		1.16639675		 0.00042984		0.00000000		 0.00075162	
O		4.69200167		4.79204986		1.12695141		 0.00042984		0.00000000		-0.00075162	
O		6.41779794		1.59735032		3.45974380		-0.00042984		0.00000000		 0.00075162	
O		4.98841224		1.59735032		1.12832680		-0.00090185		0.00000000		-0.00057317	
O		6.12138849		4.79204986		3.45836841		 0.00090185		0.00000000		 0.00057317	
O		0.56648868		4.79204986		3.42167496		 0.00090185		0.00000000		-0.00057317	
O		10.54331204		1.59735032		1.16502136		-0.00090185		0.00000000		 0.00057317	
O		1.63902874		0.29199553		1.25354424		 0.00026620		-0.00063671		 0.00077992	
O		9.47077088		6.09740354		3.33315097		-0.00026620		 0.00063671		-0.00077992	
O		3.91587107		6.09740354		3.54689129		-0.00026620		 0.00063671		 0.00077992	
O		7.19392854		0.29199553		1.03980392		 0.00026620		-0.00063671		-0.00077992	
O		9.47077088		3.48669618		3.33315097		-0.00026620		-0.00063671		-0.00077992	
O		1.63902874		2.90270401		1.25354424		 0.00026620		 0.00063671		 0.00077992	
O		7.19392854		2.90270401		1.03980392		 0.00026620		 0.00063671		-0.00077992	
O		3.91587107		3.48669618		3.54689129		-0.00026620		-0.00063671		 0.00077992	
