# total energy = -12331.2397935 eV

CRYSTAL
PRIMVEC
		2.46200010		0.00000000		0.00000000
		0.00000000		7.44902503		0.00000000
		0.00000000		0.00000000		6.10800066
PRIMECORD
   20 1
O		0.00000000		0.54377901		1.52700017		-0.00000000		-0.00034823		-0.00001950
O		0.00000000		6.90524627		4.58100025		0.00000000		 0.00034823		 0.00001950
O		1.23100005		4.26829226		1.52700017		0.00000000		-0.00034808		-0.00002015
O		1.23100005		3.18073425		4.58100025		0.00000000		 0.00034808		 0.00002015
O		0.00000000		2.70399600		2.69362802		0.00000000		-0.00027139		-0.00023937
O		0.00000000		4.74502928		3.41437215		0.00000000		 0.00027139		 0.00023937
O		0.00000000		4.74502928		5.74762811		0.00000000		 0.00025696		-0.00022807
O		0.00000000		2.70399600		0.36037206		0.00000000		-0.00025696		 0.00022807
O		1.23100005		6.42850925		2.69362802		0.00000000		-0.00027102		-0.00023931
O		1.23100005		1.02051603		3.41437215		0.00000000		 0.00027102		 0.00023931
O		1.23100005		1.02051603		5.74762811		0.00000000		 0.00025710		-0.00022817
O		1.23100005		6.42850925		0.36037206		0.00000000		-0.00025710		 0.00022817
Si		0.00000000		0.00000000		0.00000000		0.00000000		0.00000000		0.00000000
Si		0.00000000		0.00000000		3.05400009		0.00000000		0.00000000		0.00000000
Si		1.23100005		3.72451326		0.00000000		0.00000000		0.00000000		0.00000000
Si		1.23100005		3.72451326		3.05400009		0.00000000		0.00000000		0.00000000
Mg		0.00000000		1.88460297		4.58100025		0.00000000		 0.00050026		-0.00000778
Mg		0.00000000		5.56442231		1.52700017		0.00000000		-0.00050026		 0.00000778
Mg		1.23100005		5.60911623		4.58100025		0.00000000		 0.00049997		-0.00000797
Mg		1.23100005		1.83990905		1.52700017		0.00000000		-0.00049997		 0.00000797
