# total energy = -12338.0332049 eV

CRYSTAL
PRIMVEC
		2.46200010		0.00000000		0.00000000
		0.00000000		7.85167530		0.00000000
		0.00000000		0.00000000		6.10800066
PRIMECORD
   20 1
O		0.00000000		0.57317209		1.52700017		0.00000000		-0.00036994		-0.00000216
O		0.00000000		7.27850321		4.58100025		0.00000000		 0.00036994		 0.00000216
O		1.23100005		4.49901023		1.52700017		0.00000000		-0.00037105		-0.00000371
O		1.23100005		3.35266507		4.58100025		0.00000000		 0.00037105		 0.00000371
O		0.00000000		2.85015805		2.69362802		0.00000000		-0.00032615		 0.00087307
O		0.00000000		5.00151725		3.41437215		0.00000000		 0.00032615		-0.00087307
O		0.00000000		5.00151725		5.74762811		0.00000000		 0.00033441		 0.00084932
O		0.00000000		2.85015805		0.36037206		0.00000000		-0.00033441		-0.00084932
O		1.23100005		6.77599619		2.69362802		0.00000000		-0.00032523		 0.00087434
O		1.23100005		1.07567911		3.41437215		0.00000000		 0.00032523		-0.00087434
O		1.23100005		1.07567911		5.74762811		0.00000000		 0.00033413		 0.00084984
O		1.23100005		6.77599619		0.36037206		0.00000000		-0.00033413		-0.00084984
Si		0.00000000		0.00000000		0.00000000		0.00000000		0.00000000		0.00000000
Si		0.00000000		0.00000000		3.05400009		0.00000000		0.00000000		0.00000000
Si		1.23100005		3.92583814		0.00000000		0.00000000		0.00000000		0.00000000
Si		1.23100005		3.92583814		3.05400009		0.00000000		0.00000000		0.00000000
Mg		0.00000000		1.98647413		4.58100025		0.00000000		 0.00031952		-0.00005413
Mg		0.00000000		5.86520117		1.52700017		0.00000000		-0.00031952		 0.00005413
Mg		1.23100005		5.91231228		4.58100025		0.00000000		 0.00031955		-0.00005465
Mg		1.23100005		1.93936401		1.52700017		0.00000000		-0.00031955		 0.00005465
