# total energy = -12345.9758789 eV

CRYSTAL
PRIMVEC
		2.46200010		0.00000000		0.00000000
		0.00000000		8.65697584		0.00000000
		0.00000000		0.00000000		6.10800066
PRIMECORD
   20 1
O		0.00000000		0.63195899		1.52700017		0.00000000		 0.00023302		 0.00000174
O		0.00000000		8.02501636		4.58100025		0.00000000		-0.00023302		-0.00000174
O		1.23100005		4.96044715		1.52700017		0.00000000		 0.00023298		 0.00000086
O		1.23100005		3.69652819		4.58100025		0.00000000		-0.00023298		-0.00000086
O		0.00000000		3.14248215		2.69362802		0.00000000		 0.00023106		 0.00018540
O		0.00000000		5.51449319		3.41437215		0.00000000		-0.00023106		-0.00018540
O		0.00000000		5.51449319		5.74762811		0.00000000		-0.00023171		 0.00017747
O		0.00000000		3.14248215		0.36037206		0.00000000		 0.00023171		-0.00017747
O		1.23100005		7.47097032		2.69362802		0.00000000		 0.00023125		 0.00018556
O		1.23100005		1.18600601		3.41437215		0.00000000		-0.00023125		-0.00018556
O		1.23100005		1.18600601		5.74762811		0.00000000		-0.00023143		 0.00017729
O		1.23100005		7.47097032		0.36037206		0.00000000		 0.00023143		-0.00017729
Si		0.00000000		0.00000000		0.00000000		0.00000000		0.00000000		0.00000000
Si		0.00000000		0.00000000		3.05400009		0.00000000		0.00000000		0.00000000
Si		1.23100005		4.32848817		0.00000000		0.00000000		0.00000000		0.00000000
Si		1.23100005		4.32848817		3.05400009		0.00000000		0.00000000		0.00000000
Mg		0.00000000		2.19021498		4.58100025		0.00000000		-0.00078661		 0.00000377
Mg		0.00000000		6.46676135		1.52700017		0.00000000		 0.00078661		-0.00000377
Mg		1.23100005		6.51870315		4.58100025		0.00000000		-0.00078662		 0.00000368
Mg		1.23100005		2.13827318		1.52700017		0.00000000		 0.00078662		-0.00000368
