# total energy = -18274.5873469 eV	

CRYSTAL	
PRIMVEC	
		5.33600010		0.00000000		0.00000000	
		-2.66800005		4.62110949		0.00000000	
		0.00000000		0.00000000		16.07539932	
PRIMCOORD
   28 1	
Mg		1.77155203		0.00000000		3.51729704		 0.00029965		0.00000000		 0.00014270	
Mg		-0.88577602		1.53420888		3.51729704		-0.00014983		 0.00025951		 0.00014270	
Mg		1.78222403		3.08690220		3.51729704		-0.00014983		-0.00025951		 0.00014270	
Mg		3.56444807		0.00000000		11.55499830		-0.00029965		-0.00000000		 0.00014270	
Mg		-1.78222403		3.08690220		11.55499830		 0.00014983		-0.00025951		 0.00014270	
Mg		0.88577602		1.53420888		11.55499830		 0.00014983		 0.00025951		 0.00014270	
Si		0.00000000		3.08074126		0.46940206		0.00000000		0.00000000		-0.00027567	
Si		2.66800005		1.54036983		8.50710225		-0.00000000		-0.00000000		-0.00027567	
Si		0.00000000		3.08074126		8.50710225		0.00000000		0.00000000		-0.00027567	
Si		2.66800005		1.54037090		0.46940206		0.00000000		-0.00000000		-0.00027567	
O		0.00000000		3.08074126		2.26020105		0.00000000		-0.00000000		-0.00002204	
O		2.66800005		1.54036983		10.29790124		0.00000000		-0.00000000		-0.00002204	
O		0.00000000		3.08074126		10.29790124		-0.00000000		-0.00000000		-0.00002204	
O		2.66800005		1.54037090		2.26020105		0.00000000		-0.00000000		-0.00002204	
O		2.63598405		0.00000000		15.93072222		-0.00004025		-0.00000000		 0.00015877	
O		-1.31799202		2.28282889		15.93072222		 0.00002013		-0.00003487		 0.00015877	
O		1.35000803		2.33828327		15.93072222		 0.00002013		 0.00003487		 0.00015877	
O		2.70001605		0.00000000		7.89302202		 0.00004025		0.00000000		 0.00015877	
O		-1.35000803		2.33828327		7.89302202		-0.00002013		 0.00003487		 0.00015877	
O		1.31799202		2.28282889		7.89302202		-0.00002013		-0.00003487		 0.00015877	
O		3.55733305		0.00000000		4.59595718		-0.00025141		0.00000000		-0.00005609	
O		-1.77866706		3.08074126		4.59595718		 0.00012570		-0.00021772		-0.00005609	
O		0.88933299		1.54036983		4.59595718		 0.00012570		 0.00021772		-0.00005609	
O		1.77866706		0.00000000		12.63365738		 0.00025141		0.00000000		-0.00005609	
O		-0.88933299		1.54036983		12.63365738		-0.00012570		 0.00021772		-0.00005609	
O		1.77866706		3.08074126		12.63365738		-0.00012570		-0.00021772		-0.00005609	
O		0.00000000		0.00000000		2.31485823		0.00000000		0.00000000		-0.00014072	
O		0.00000000		0.00000000		10.35255842		0.00000000		-0.00000000		-0.00014072	
