# total energy = -7175.23333034 eV	

CRYSTAL	
PRIMVEC	
		3.05466460		0.00000000		0.00000000	
		-1.52733230		2.64541792		0.00000000	
		0.00000000		0.00000000		11.55405968	
PRIMCOORD
   12 1	
O		0.00000000		1.76361091		4.72649765		 0.00000001		 0.00000001		 0.00001328	
O		1.52733168		0.88180545		6.82756172		-0.00000000		0.00000000		-0.00001295	
O		0.00000000		1.76361091		9.29271547		-0.00000003		 0.00000002		 0.00002596	
O		1.52733199		0.88180545		2.26134389		-0.00000000		-0.00000001		-0.00002516	
O		0.00000000		0.00000000		0.00000000		 0.00000001		0.00000000		-0.00000004	
H		0.00000000		1.76361091		3.76518309		0.00000000		0.00000000		-0.00008071	
H		1.52733168		0.88180545		7.78887659		-0.00000000		-0.00000000		 0.00008038	
H		0.00000000		1.76361091		8.32830882		0.00000000		-0.00000000		 0.00001681	
H		1.52733199		0.88180545		3.22575054		-0.00000000		-0.00000000		-0.00001748	
Mg		0.00000000		0.00000000		5.77702984		-0.00000000		-0.00000001		 0.00000001	
Mg		1.52733199		0.88180545		10.34953048		 0.00000002		-0.00000001		-0.00004481	
Mg		0.00000000		1.76361091		1.20452920		-0.00000001		-0.00000001		 0.00004473	
