# total energy = -7174.10056174 eV	

CRYSTAL	
PRIMVEC	
		3.34886687		-0.00000311		0.00000000	
		-1.67443655		2.90020359		-0.00000311	
		0.00000311		-0.00000311		16.86485900	
PRIMCOORD
   12 1	
O		0.00000000		1.93346668		7.43394209		-0.00000030		 0.00000002		 0.00075195	
O		1.67443281		0.96673194		9.43116711		-0.00000019		-0.00000008		-0.00087219	
O		0.00000000		1.93346543		14.68441902		-0.00000011		 0.00000009		 0.00061854	
O		1.67443561		0.96673349		2.18035285		 0.00000023		-0.00000012		-0.00088626	
O		0.00000000		0.00000000		-0.00007438		 0.00000002		-0.00000010		 0.00000282	
H		0.00000000		1.93346699		6.47187629		0.00000000		-0.00000004		-0.00073046	
H		1.67443499		0.96673007		10.39316881		-0.00000010		 0.00000008		 0.00084754	
H		0.00000000		1.93346636		13.72131101		-0.00000001		-0.00000003		-0.00066521	
H		1.67443499		0.96673256		3.14331926		 0.00000001		 0.00000005		 0.00092067	
Mg		0.00000000		0.00000000		8.43253624		 0.00000063		 0.00000002		 0.00000357	
Mg		1.67443312		0.96673100		15.66171557		 0.00000022		-0.00000009		 0.00013840	
Mg		0.00000498		1.93346730		1.20298409		-0.00000041		 0.00000021		-0.00012936	
