# total energy = -7175.27609008 eV	

CRYSTAL	
PRIMVEC	
		3.13791683		0.00000000		0.00000000	
		-1.56895842		2.71751363		0.00000000	
		0.00000000		0.00000000		12.40869271	
PRIMCOORD
   12 1	
O		0.00000000		1.81167668		5.14823653		-0.00000000		-0.00000003		 0.00066193	
O		1.56895810		0.90583819		7.26045556		-0.00000000		 0.00000004		-0.00066243	
O		0.00000000		1.81167668		10.13600651		-0.00000004		-0.00000000		-0.00058340	
O		1.56895810		0.90583850		2.27268527		 0.00000002		 0.00000001		 0.00058325	
O		0.00000000		0.00000000		0.00000000		 0.00000002		-0.00000000		0.00000000	
H		0.00000000		1.81167668		4.18545527		-0.00000000		-0.00000000		 0.00021601	
H		1.56895810		0.90583850		8.22323650		-0.00000000		-0.00000001		-0.00021560	
H		0.00000000		1.81167668		9.17187091		-0.00000000		-0.00000000		 0.00007645	
H		1.56895810		0.90583850		3.23682086		0.00000000		-0.00000000		-0.00007634	
Mg		0.00000000		0.00000000		6.20434604		0.00000000		0.00000000		0.00000000	
Mg		1.56895779		0.90583850		11.18286715		 0.00000001		-0.00000000		-0.00041590	
Mg		0.00000000		1.81167668		1.22582462		-0.00000001		-0.00000001		 0.00041601	
