# total energy = -7174.48755572 eV	

CRYSTAL	
PRIMVEC	
		3.27004924		0.00000000		0.00000000	
		-1.63502618		2.83193876		-0.00000311	
		0.00000622		-0.00000622		16.59028723	
PRIMCOORD
   12 1	
O		0.00000000		1.88795803		7.27831377		 0.00000007		-0.00000013		 0.00116318	
O		1.63502742		0.94397699		9.31170739		-0.00000013		 0.00000008		-0.00028539	
O		-0.00000436		1.88795990		14.38069154		-0.00000020		 0.00000030		 0.00057462	
O		1.63503365		0.94397108		2.20966415		 0.00000020		-0.00000025		-0.00075348	
O		0.00000000		0.00000000		0.00001276		-0.00000002		-0.00000002		-0.00000159	
H		0.00000000		1.88795523		6.31746693		0.00000000		-0.00000000		-0.00110981	
H		1.63502556		0.94397575		10.27301200		 0.00000003		 0.00000010		 0.00027065	
H		0.00000000		1.88795648		13.41862418		-0.00000008		 0.00000005		-0.00055778	
H		1.63502773		0.94397513		3.17164127		 0.00000009		-0.00000006		 0.00072114	
Mg		0.00000000		0.00000000		8.29511872		 0.00000004		-0.00000007		-0.00003835	
Mg		1.63501622		0.94398602		15.37901215		 0.00000109		-0.00000085		 0.00017715	
Mg		0.00001338		1.88794527		1.21129936		-0.00000108		 0.00000084		-0.00016035	
