# total energy = -7175.02901348 eV	

CRYSTAL	
PRIMVEC	
		3.01381027		0.00000000		0.00000000	
		-1.50690513		2.61003759		0.00000000	
		0.00000000		0.00000311		11.30732786	
PRIMCOORD
   12 1	
O		0.00000000		1.74002475		4.60531232		-0.00000000		0.00000000		 0.00004007	
O		1.50690545		0.87001284		6.70201647		-0.00000001		-0.00000001		-0.00004285	
O		0.00000000		1.74002631		9.05654299		-0.00000005		-0.00000001		 0.00016635	
O		1.50690513		0.87001129		2.25078457		 0.00000001		 0.00000002		-0.00016218	
O		0.00000000		0.00000000		0.00000000		0.00000000		 0.00000001		-0.00000053	
H		0.00000000		1.74002506		3.64485947		 0.00000001		-0.00000001		 0.00004835	
H		1.50690513		0.87001222		7.66246746		0.00000000		 0.00000001		-0.00004553	
H		0.00000000		1.74002568		8.09255677		 0.00000002		-0.00000002		-0.00001842	
H		1.50690482		0.87001191		3.21477265		0.00000000		 0.00000002		 0.00001514	
Mg		0.00000000		0.00000000		5.65366424		-0.00000001		-0.00000001		 0.00000005	
Mg		1.50690513		0.87001440		10.11460030		 0.00000002		-0.00000007		-0.00002013	
Mg		0.00000000		1.74002350		1.19272943		0.00000000		 0.00000005		 0.00001966	
