# total energy = -41273.188809 eV	

CRYSTAL	
PRIMVEC	
		5.41338486		0.00000000		0.00000000	
		0.00000000		11.43800041		0.00000000	
		0.00000000		0.00000000		8.25659744	
PRIMCOORD
   56 1	
Mg		0.00000000		0.00000000		0.00000000		0.00000000		0.00000000		0.00000000	
Mg		0.00000000		5.71899967		0.00000000		0.00000000		0.00000000		0.00000000	
Mg		2.70669189		5.71899967		4.12829980		0.00000000		0.00000000		0.00000000	
Mg		2.70669189		0.00000000		4.12829980		0.00000000		0.00000000		0.00000000	
Mg		0.00000000		2.85949983		8.00972760		0.00000000		 0.00000001		 0.00064391	
Mg		0.00000000		8.57850004		0.24687200		0.00000000		-0.00000001		-0.00064391	
Mg		2.70669189		8.57850004		3.88142780		0.00000000		-0.00000002		 0.00064391	
Mg		2.70669189		2.85949983		4.37517289		0.00000000		 0.00000002		-0.00064391	
Mg		1.35334621		1.45948916		2.06415017		-0.00000000		-0.00083620		0.00000000	
Mg		4.06003864		9.97851071		6.19244997		0.00000000		 0.00083620		-0.00000000	
Mg		4.06003864		4.25951105		2.06415017		-0.00000000		 0.00083619		 0.00000001	
Mg		1.35334621		7.17848882		6.19244997		0.00000000		-0.00083619		-0.00000001	
Mg		4.06003864		7.17848882		6.19244997		-0.00000000		-0.00083619		-0.00000001	
Mg		1.35334621		4.25951105		2.06415017		0.00000000		 0.00083619		 0.00000001	
Mg		1.35334621		9.97851071		6.19244997		-0.00000000		 0.00083620		-0.00000000	
Mg		4.06003864		1.45948916		2.06415017		0.00000000		-0.00083620		0.00000000	
Si		0.00000000		1.37027170		5.09267104		-0.00000000		-0.00009842		-0.00068918	
Si		0.00000000		10.06772763		3.16392911		-0.00000000		 0.00009842		 0.00068918	
Si		0.00000000		4.34872688		5.09267104		-0.00000000		 0.00009839		-0.00068916	
Si		0.00000000		7.08927191		3.16392911		-0.00000000		-0.00009839		 0.00068916	
Si		2.70669189		7.08927191		0.96437123		0.00000000		-0.00009845		-0.00068907	
Si		2.70669189		4.34872688		7.29222891		0.00000000		 0.00009845		 0.00068907	
Si		2.70669189		10.06772763		0.96437123		0.00000000		 0.00009848		-0.00068908	
Si		2.70669189		1.37027170		7.29222891		0.00000000		-0.00009848		 0.00068908	
O		0.00000000		2.85949983		1.78837990		0.00000000		-0.00000002		-0.00010471	
O		0.00000000		8.57850004		6.46822079		0.00000000		 0.00000002		 0.00010471	
O		2.70669189		8.57850004		5.91667970		0.00000000		-0.00000004		-0.00010462	
O		2.70669189		2.85949983		2.33992099		0.00000000		 0.00000004		 0.00010462	
O		0.00000000		2.85949983		5.91502862		0.00000000		 0.00000002		-0.00019386	
O		0.00000000		8.57850004		2.34157207		0.00000000		-0.00000002		 0.00019386	
O		2.70669189		8.57850004		1.78672881		0.00000000		-0.00000001		-0.00019384	
O		2.70669189		2.85949983		6.46987187		0.00000000		 0.00000001		 0.00019384	
O		0.00000000		11.32361992		2.11203806		0.00000000		-0.00020659		-0.00008172	
O		0.00000000		0.11437995		6.14456209		0.00000000		 0.00020659		 0.00008172	
O		0.00000000		5.83337962		2.11203806		0.00000000		 0.00020661		-0.00008172	
O		0.00000000		5.60461972		6.14456209		0.00000000		-0.00020661		 0.00008172	
O		2.70669189		5.60461972		6.24033894		0.00000000		-0.00020662		-0.00008165	
O		2.70669189		5.83337962		2.01626175		0.00000000		 0.00020662		 0.00008165	
O		2.70669189		0.11437995		6.24033894		0.00000000		 0.00020668		-0.00008166	
O		2.70669189		11.32361992		2.01626175		0.00000000		-0.00020668		 0.00008166	
O		1.41560014		1.40115506		8.19467590		-0.00011517		-0.00039770		-0.00036685	
O		3.99778472		10.03684481		0.06192425		 0.00011517		 0.00039770		 0.00036685	
O		3.99778472		4.31784514		8.19467590		 0.00011514		 0.00039768		-0.00036685	
O		1.41560014		7.12015473		0.06192425		-0.00011514		-0.00039768		 0.00036685	
O		3.99778472		7.12015473		0.06192425		 0.00011514		-0.00039768		 0.00036685	
O		1.41560014		4.31784514		8.19467590		-0.00011514		 0.00039768		-0.00036685	
O		1.41560014		10.03684481		0.06192425		-0.00011517		 0.00039770		 0.00036685	
O		3.99778472		1.40115506		8.19467590		 0.00011517		-0.00039770		-0.00036685	
O		4.12229311		7.12015473		4.06637609		-0.00011512		-0.00039770		-0.00036688	
O		1.29109175		4.31784514		4.19022514		 0.00011512		 0.00039770		 0.00036688	
O		1.29109175		10.03684481		4.06637609		 0.00011510		 0.00039769		-0.00036691	
O		4.12229311		1.40115506		4.19022514		-0.00011510		-0.00039769		 0.00036691	
O		1.29109175		1.40115506		4.19022514		 0.00011510		-0.00039769		 0.00036691	
O		4.12229311		10.03684481		4.06637609		-0.00011510		 0.00039769		-0.00036691	
O		4.12229311		4.31784514		4.19022514		-0.00011512		 0.00039770		 0.00036688	
O		1.29109175		7.12015473		4.06637609		 0.00011512		-0.00039770		-0.00036688	
