# total energy = -41275.3895933 eV	

CRYSTAL	
PRIMVEC	
		5.84075683		0.00000000		0.00000000	
		0.00000000		11.43800083		0.00000000	
		0.00000000		0.00000000		8.25659899	
PRIMCOORD
   56 1	
Mg		0.00000000		0.00000000		0.00000000		0.00000000		0.00000000		0.00000000	
Mg		0.00000000		5.71899983		0.00000000		0.00000000		0.00000000		0.00000000	
Mg		2.92037900		5.71899983		4.12830008		0.00000000		0.00000000		0.00000000	
Mg		2.92037900		0.00000000		4.12830008		0.00000000		0.00000000		0.00000000	
Mg		0.00000000		2.85950021		8.00972772		0.00000000		-0.00000002		 0.00013183	
Mg		0.00000000		8.57850004		0.24687185		0.00000000		 0.00000002		-0.00013183	
Mg		2.92037900		8.57850004		3.88142764		0.00000000		 0.00000001		 0.00013185	
Mg		2.92037900		2.85950021		4.37517310		0.00000000		-0.00000001		-0.00013185	
Mg		1.46018921		1.45948890		2.06414975		 0.00000001		 0.00047951		 0.00000001	
Mg		4.38056762		9.97851076		6.19244983		-0.00000001		-0.00047951		-0.00000001	
Mg		4.38056762		4.25951093		2.06414975		-0.00000002		-0.00047952		0.00000000	
Mg		1.46018921		7.17848873		6.19244983		 0.00000002		 0.00047952		-0.00000000	
Mg		4.38056762		7.17848873		6.19244983		-0.00000002		 0.00047952		-0.00000000	
Mg		1.46018921		4.25951093		2.06414975		 0.00000002		-0.00047952		0.00000000	
Mg		1.46018921		9.97851076		6.19244983		 0.00000001		-0.00047951		-0.00000001	
Mg		4.38056762		1.45948890		2.06414975		-0.00000001		 0.00047951		 0.00000001	
Si		0.00000000		1.37027192		5.09267094		0.00000000		 0.00026234		 0.00010507	
Si		0.00000000		10.06772774		3.16392863		0.00000000		-0.00026234		-0.00010507	
Si		0.00000000		4.34872674		5.09267094		0.00000000		-0.00026239		 0.00010506	
Si		0.00000000		7.08927176		3.16392863		0.00000000		 0.00026239		-0.00010506	
Si		2.92037900		7.08927176		0.96437086		0.00000000		 0.00026235		 0.00010510	
Si		2.92037900		4.34872674		7.29222871		0.00000000		-0.00026235		-0.00010510	
Si		2.92037900		10.06772774		0.96437086		-0.00000000		-0.00026242		 0.00010508	
Si		2.92037900		1.37027192		7.29222871		-0.00000000		 0.00026242		-0.00010508	
O		0.00000000		2.85950021		1.78838017		0.00000000		0.00000000		-0.00007983	
O		0.00000000		8.57850004		6.46822058		0.00000000		-0.00000000		 0.00007983	
O		2.92037900		8.57850004		5.91667966		0.00000000		-0.00000005		-0.00007985	
O		2.92037900		2.85950021		2.33992108		0.00000000		 0.00000005		 0.00007985	
O		0.00000000		2.85950021		5.91502906		0.00000000		 0.00000003		 0.00077253	
O		0.00000000		8.57850004		2.34157168		0.00000000		-0.00000003		-0.00077253	
O		2.92037900		8.57850004		1.78672898		0.00000000		 0.00000003		 0.00077252	
O		2.92037900		2.85950021		6.46987176		0.00000000		-0.00000003		-0.00077252	
O		0.00000000		11.32361954		2.11203811		0.00000000		 0.00034788		-0.00047445	
O		0.00000000		0.11438013		6.14456205		0.00000000		-0.00034788		 0.00047445	
O		0.00000000		5.83337996		2.11203811		0.00000000		-0.00034791		-0.00047446	
O		0.00000000		5.60461971		6.14456205		0.00000000		 0.00034791		 0.00047446	
O		2.92037900		5.60461971		6.24033878		0.00000000		 0.00034790		-0.00047451	
O		2.92037900		5.83337996		2.01626197		0.00000000		-0.00034790		 0.00047451	
O		2.92037900		0.11438013		6.24033878		0.00000000		-0.00034785		-0.00047450	
O		2.92037900		11.32361954		2.01626197		0.00000000		 0.00034785		 0.00047450	
O		1.52735791		1.40115493		8.19467587		 0.00084032		 0.00010757		-0.00001214	
O		4.31339892		10.03684474		0.06192429		-0.00084032		-0.00010757		 0.00001214	
O		4.31339892		4.31784490		8.19467587		-0.00084034		-0.00010754		-0.00001214	
O		1.52735791		7.12015476		0.06192429		 0.00084034		 0.00010754		 0.00001214	
O		4.31339892		7.12015476		0.06192429		-0.00084034		 0.00010754		 0.00001214	
O		1.52735791		4.31784490		8.19467587		 0.00084034		-0.00010754		-0.00001214	
O		1.52735791		10.03684474		0.06192429		 0.00084032		-0.00010757		 0.00001214	
O		4.31339892		1.40115493		8.19467587		-0.00084032		 0.00010757		-0.00001214	
O		4.44773691		7.12015476		4.06637579		 0.00084033		 0.00010755		-0.00001208	
O		1.39302109		4.31784490		4.19022495		-0.00084033		-0.00010755		 0.00001208	
O		1.39302109		10.03684474		4.06637579		-0.00084035		-0.00010759		-0.00001212	
O		4.44773691		1.40115493		4.19022495		 0.00084035		 0.00010759		 0.00001212	
O		1.39302109		1.40115493		4.19022495		-0.00084035		 0.00010759		 0.00001212	
O		4.44773691		10.03684474		4.06637579		 0.00084035		-0.00010759		-0.00001212	
O		4.44773691		4.31784490		4.19022495		 0.00084033		-0.00010755		 0.00001208	
O		1.39302109		7.12015476		4.06637579		-0.00084033		 0.00010755		-0.00001208	
