# total energy = -41270.6025789 eV	

CRYSTAL	
PRIMVEC	
		5.27092665		0.00000000		0.00000000	
		0.00000000		11.43800044		0.00000000	
		0.00000000		0.00000000		8.25660089	
PRIMCOORD
   56 1	
Mg		0.00000000		0.00000000		0.00000000		0.00000000		0.00000000		0.00000000	
Mg		0.00000000		5.71899969		0.00000000		0.00000000		0.00000000		0.00000000	
Mg		2.63546385		5.71899969		4.12829992		0.00000000		0.00000000		0.00000000	
Mg		2.63546385		0.00000000		4.12829992		0.00000000		0.00000000		0.00000000	
Mg		0.00000000		2.85949985		8.00972755		-0.00000000		-0.00000001		 0.00014340	
Mg		0.00000000		8.57849954		0.24687176		-0.00000000		 0.00000001		-0.00014340	
Mg		2.63546385		8.57849954		3.88142763		0.00000000		 0.00000001		 0.00014343	
Mg		2.63546385		2.85949985		4.37517273		0.00000000		-0.00000001		-0.00014343	
Mg		1.31773166		1.45948902		2.06414969		 0.00000002		 0.00015500		 0.00000003	
Mg		3.95319552		9.97851037		6.19244961		-0.00000002		-0.00015500		-0.00000003	
Mg		3.95319552		4.25951067		2.06414969		-0.00000003		-0.00015502		 0.00000004	
Mg		1.31773166		7.17848871		6.19244961		 0.00000003		 0.00015502		-0.00000004	
Mg		3.95319552		7.17848871		6.19244961		-0.00000003		 0.00015502		-0.00000004	
Mg		1.31773166		4.25951067		2.06414969		 0.00000003		-0.00015502		 0.00000004	
Mg		1.31773166		9.97851037		6.19244961		 0.00000002		-0.00015500		-0.00000003	
Mg		3.95319552		1.45948902		2.06414969		-0.00000002		 0.00015500		 0.00000003	
Si		0.00000000		1.37027173		5.09267076		0.00000000		-0.00015205		-0.00053305	
Si		0.00000000		10.06772713		3.16392854		0.00000000		 0.00015205		 0.00053305	
Si		0.00000000		4.34872691		5.09267076		0.00000000		 0.00015200		-0.00053308	
Si		0.00000000		7.08927143		3.16392854		0.00000000		-0.00015200		 0.00053308	
Si		2.63546385		7.08927143		0.96437085		0.00000000		-0.00015211		-0.00053276	
Si		2.63546385		4.34872691		7.29222846		0.00000000		 0.00015211		 0.00053276	
Si		2.63546385		10.06772713		0.96437085		0.00000000		 0.00015217		-0.00053272	
Si		2.63546385		1.37027173		7.29222846		0.00000000		-0.00015217		 0.00053272	
O		0.00000000		2.85949985		1.78838008		0.00000000		 0.00000002		 0.00024164	
O		0.00000000		8.57849954		6.46822080		0.00000000		-0.00000002		-0.00024164	
O		2.63546385		8.57849954		5.91667947		0.00000000		-0.00000003		 0.00024166	
O		2.63546385		2.85949985		2.33992089		0.00000000		 0.00000003		-0.00024166	
O		0.00000000		2.85949985		5.91502862		-0.00000000		 0.00000003		-0.00021409	
O		0.00000000		8.57849954		2.34157174		-0.00000000		-0.00000003		 0.00021409	
O		2.63546385		8.57849954		1.78672870		0.00000000		-0.00000003		-0.00021424	
O		2.63546385		2.85949985		6.46987166		0.00000000		 0.00000003		 0.00021424	
O		0.00000000		11.32361922		2.11203764		0.00000000		 0.00012274		 0.00005143	
O		0.00000000		0.11438016		6.14456166		0.00000000		-0.00012274		-0.00005143	
O		0.00000000		5.83337986		2.11203764		0.00000000		-0.00012276		 0.00005140	
O		0.00000000		5.60461953		6.14456166		0.00000000		 0.00012276		-0.00005140	
O		2.63546385		5.60461953		6.24033861		0.00000000		 0.00012266		 0.00005157	
O		2.63546385		5.83337986		2.01626174		0.00000000		-0.00012266		-0.00005157	
O		2.63546385		0.11438016		6.24033861		0.00000000		-0.00012264		 0.00005159	
O		2.63546385		11.32361922		2.01626174		0.00000000		 0.00012264		-0.00005159	
O		1.37834785		1.40115515		8.19467540		 0.00004410		-0.00010174		-0.00012361	
O		3.89257986		10.03684424		0.06192390		-0.00004410		 0.00010174		 0.00012361	
O		3.89257986		4.31784455		8.19467540		-0.00004412		 0.00010175		-0.00012363	
O		1.37834785		7.12015431		0.06192390		 0.00004412		-0.00010175		 0.00012363	
O		3.89257986		7.12015431		0.06192390		-0.00004412		-0.00010175		 0.00012363	
O		1.37834785		4.31784455		8.19467540		 0.00004412		 0.00010175		-0.00012363	
O		1.37834785		10.03684424		0.06192390		 0.00004410		 0.00010174		 0.00012361	
O		3.89257986		1.40115515		8.19467540		-0.00004410		-0.00010174		-0.00012361	
O		4.01381065		7.12015431		4.06637549		 0.00004421		-0.00010177		-0.00012365	
O		1.25711601		4.31784455		4.19022487		-0.00004421		 0.00010177		 0.00012365	
O		1.25711601		10.03684424		4.06637549		-0.00004420		 0.00010176		-0.00012365	
O		4.01381065		1.40115515		4.19022487		 0.00004420		-0.00010176		 0.00012365	
O		1.25711601		1.40115515		4.19022487		-0.00004420		-0.00010176		 0.00012365	
O		4.01381065		10.03684424		4.06637549		 0.00004420		 0.00010176		-0.00012365	
O		4.01381065		4.31784455		4.19022487		 0.00004421		 0.00010177		 0.00012365	
O		1.25711601		7.12015431		4.06637549		-0.00004421		-0.00010177		-0.00012365	
