# total energy = -41274.6234942 eV

CRYSTAL
PRIMVEC
		8.11999976		0.00000000		0.00000000
		0.00000000		8.11999976		0.00000000
		0.00000000		0.00000000		8.11999976
PRIMECORD
   56 1
Si		1.01499997		1.01499997		1.01499997		 0.00000034		 0.00000034		 0.00000034
Si		7.10499979		7.10499979		7.10499979		-0.00000034		-0.00000034		-0.00000034
Si		5.07499985		1.01499997		5.07499985		-0.00000023		 0.00000026		-0.00000023
Si		3.04499991		7.10499979		3.04499991		 0.00000023		-0.00000026		 0.00000023
Si		1.01499997		5.07499985		5.07499985		 0.00000026		-0.00000023		-0.00000023
Si		7.10499979		3.04499991		3.04499991		-0.00000026		 0.00000023		 0.00000023
Si		5.07499985		5.07499985		1.01499997		-0.00000023		-0.00000023		 0.00000026
Si		3.04499991		3.04499991		7.10499979		 0.00000023		 0.00000023		-0.00000026
Mg		4.05999988		4.05999988		4.05999988		-0.00000000		0.00000000		0.00000000
Mg		2.02999994		6.08999982		0.00000000		 0.00000038		-0.00000038		0.00000000
Mg		6.08999982		2.02999994		0.00000000		-0.00000038		 0.00000038		0.00000000
Mg		6.08999982		0.00000000		2.02999994		-0.00000038		0.00000000		 0.00000038
Mg		2.02999994		0.00000000		6.08999982		 0.00000038		0.00000000		-0.00000038
Mg		0.00000000		2.02999994		6.08999982		0.00000000		 0.00000038		-0.00000038
Mg		0.00000000		6.08999982		2.02999994		0.00000000		-0.00000038		 0.00000038
Mg		4.05999988		0.00000000		0.00000000		0.00000000		0.00000000		0.00000000
Mg		2.02999994		2.02999994		4.05999988		 0.00000008		 0.00000008		 0.00000015
Mg		6.08999982		6.08999982		4.05999988		-0.00000008		-0.00000008		-0.00000015
Mg		6.08999982		4.05999988		6.08999982		-0.00000008		-0.00000015		-0.00000008
Mg		2.02999994		4.05999988		2.02999994		 0.00000008		 0.00000015		 0.00000008
Mg		0.00000000		4.05999988		0.00000000		0.00000000		0.00000000		0.00000000
Mg		4.05999988		2.02999994		2.02999994		 0.00000015		 0.00000008		 0.00000008
Mg		4.05999988		6.08999982		6.08999982		-0.00000015		-0.00000008		-0.00000008
Mg		0.00000000		0.00000000		4.05999988		0.00000000		0.00000000		0.00000000
O		1.96179194		1.96179194		1.96179194		 0.00000853		 0.00000853		 0.00000853
O		6.15820782		6.15820782		6.15820782		-0.00000853		-0.00000853		-0.00000853
O		4.12820788		0.06820800		6.02179182		-0.00000863		-0.00000867		 0.00000865
O		3.99179188		8.05179176		2.09820794		 0.00000863		 0.00000867		-0.00000865
O		0.06820800		6.02179182		4.12820788		-0.00000867		 0.00000865		-0.00000863
O		8.05179176		2.09820794		3.99179188		 0.00000867		-0.00000865		 0.00000863
O		6.02179182		4.12820788		0.06820800		 0.00000865		-0.00000863		-0.00000867
O		2.09820794		3.99179188		8.05179176		-0.00000865		 0.00000863		 0.00000867
O		8.05179176		3.99179188		2.09820794		 0.00000867		 0.00000863		-0.00000865
O		0.06820800		4.12820788		6.02179182		-0.00000867		-0.00000863		 0.00000865
O		3.99179188		2.09820794		8.05179176		 0.00000863		-0.00000865		 0.00000867
O		4.12820788		6.02179182		0.06820800		-0.00000863		 0.00000865		-0.00000867
O		2.09820794		8.05179176		3.99179188		-0.00000865		 0.00000867		 0.00000863
O		6.02179182		0.06820800		4.12820788		 0.00000865		-0.00000867		-0.00000863
O		1.96179194		6.02179182		6.02179182		 0.00000865		 0.00000867		 0.00000867
O		6.15820782		2.09820794		2.09820794		-0.00000865		-0.00000867		-0.00000867
O		4.12820788		4.12820788		1.96179194		-0.00000836		-0.00000836		 0.00000842
O		3.99179188		3.99179188		6.15820782		 0.00000836		 0.00000836		-0.00000842
O		0.06820800		1.96179194		0.06820800		-0.00000876		 0.00000852		-0.00000876
O		8.05179176		6.15820782		8.05179176		 0.00000876		-0.00000852		 0.00000876
O		8.05179176		8.05179176		6.15820782		 0.00000876		 0.00000876		-0.00000852
O		0.06820800		0.06820800		1.96179194		-0.00000876		-0.00000876		 0.00000852
O		3.99179188		6.15820782		3.99179188		 0.00000836		-0.00000842		 0.00000836
O		4.12820788		1.96179194		4.12820788		-0.00000836		 0.00000842		-0.00000836
O		6.02179182		1.96179194		6.02179182		 0.00000867		 0.00000865		 0.00000867
O		2.09820794		6.15820782		2.09820794		-0.00000867		-0.00000865		-0.00000867
O		1.96179194		4.12820788		4.12820788		 0.00000842		-0.00000836		-0.00000836
O		6.15820782		3.99179188		3.99179188		-0.00000842		 0.00000836		 0.00000836
O		6.15820782		8.05179176		8.05179176		-0.00000852		 0.00000876		 0.00000876
O		1.96179194		0.06820800		0.06820800		 0.00000852		-0.00000876		-0.00000876
O		6.02179182		6.02179182		1.96179194		 0.00000867		 0.00000867		 0.00000865
O		2.09820794		2.09820794		6.15820782		-0.00000867		-0.00000867		-0.00000865
