# total energy = -18534.6848167 eV

CRYSTAL
PRIMVEC
		4.92029966		0.00000000		0.00000000
		-2.46014983		4.05819428		0.00000000
		0.00000000		0.00000000		13.29099882
PRIMECORD
   30 1
O		1.49675466		0.13229702		3.21110565		 0.00034018		 0.00007924		-0.00031848
O		0.96339517		3.92589775		10.07989317		-0.00034018		-0.00007924		 0.00031848
O		4.05162075		1.16835369		3.21110565		-0.00005934		 0.00013066		-0.00074636
O		-1.59147093		2.88984058		10.07989317		 0.00005934		-0.00013066		 0.00074636
O		1.83207407		2.75754258		3.21110565		 0.00023493		-0.00000624		-0.00039015
O		0.62807576		1.30065071		10.07989317		-0.00023493		 0.00000624		 0.00039015
O		3.95690449		1.48502910		7.64143842		 0.00033845		 0.00008254		-0.00035184
O		0.96339517		1.22043408		1.21922811		-0.00034158		-0.00008156		 0.00035979
O		1.59147093		2.52108577		7.64143842		-0.00005224		 0.00013533		-0.00078701
O		3.32882873		0.18437691		1.21922811		 0.00005335		-0.00013803		 0.00078449
O		1.83207407		0.05207990		7.64143842		 0.00024043		 0.00000239		-0.00042982
O		3.08822559		2.65338279		1.21922811		-0.00023569		 0.00000369		 0.00043573
O		1.49675466		2.83775970		12.07177218		 0.00034158		 0.00008156		-0.00035979
O		-1.49675466		2.57316567		5.64956040		-0.00033845		-0.00008254		 0.00035184
O		-0.86867890		3.87381785		12.07177218		-0.00005335		 0.00013803		-0.00078449
O		0.86867890		1.53710899		5.64956040		 0.00005224		-0.00013533		 0.00078701
O		-0.62807576		1.40481198		12.07177218		 0.00023569		-0.00000369		-0.00043573
O		0.62807576		4.00611487		5.64956040		-0.00024043		-0.00000239		 0.00042982
Mg		0.00000000		0.00000000		4.76615258		 0.00042011		 0.00062197		 0.00043536
Mg		0.00000000		0.00000000		8.52484624		-0.00042011		-0.00062197		-0.00043536
Mg		2.46014983		1.35273208		9.19648535		 0.00044407		 0.00062406		 0.00035527
Mg		2.46014983		1.35273208		12.95518000		-0.00041556		-0.00060904		-0.00040467
Mg		0.00000000		2.70546269		0.33581882		 0.00041556		 0.00060904		 0.00040467
Mg		0.00000000		2.70546269		4.09451396		-0.00044407		-0.00062406		-0.00035527
Si		0.00000000		0.00000000		2.08668679		-0.00004220		 0.00029507		 0.00044054
Si		0.00000000		0.00000000		11.20431203		 0.00004220		-0.00029507		-0.00044054
Si		2.46014983		1.35273208		6.51702054		-0.00004238		 0.00029549		 0.00040035
Si		2.46014983		1.35273208		2.34364599		 0.00003564		-0.00029878		-0.00039745
Si		0.00000000		2.70546269		10.94735332		-0.00003564		 0.00029878		 0.00039745
Si		0.00000000		2.70546269		6.77397975		 0.00004238		-0.00029549		-0.00040035
