# total energy = -18532.5455892 eV

CRYSTAL
PRIMVEC
		4.45170002		0.00000000		0.00000000
		-2.22585001		4.05819645		0.00000000
		0.00000000		0.00000000		13.29100003
PRIMECORD
   30 1
O		1.35420715		0.13229696		3.21110605		 0.00009887		-0.00010599		-0.00020579
O		0.87164286		3.92589816		10.07989399		-0.00009887		 0.00010599		 0.00020579
O		3.66575194		1.16835401		3.21110605		-0.00006327		 0.00020180		 0.00051921
O		-1.43990193		2.88984110		10.07989399		 0.00006327		-0.00020180		-0.00051921
O		1.65759095		2.75754281		3.21110605		 0.00008885		-0.00024559		-0.00002850
O		0.56825906		1.30065097		10.07989399		-0.00008885		 0.00024559		 0.00002850
O		3.58005716		1.48502881		7.64143924		 0.00009948		-0.00009517		-0.00023537
O		0.87164286		1.22043401		1.21922804		-0.00009339		 0.00006764		 0.00025227
O		1.43990193		2.52108586		7.64143924		-0.00005455		 0.00019896		 0.00048009
O		3.01179809		0.18437695		1.21922804		 0.00008212		-0.00016936		-0.00046678
O		1.65759095		0.05207999		7.64143924		 0.00010652		-0.00023188		-0.00004577
O		2.79410907		2.65338282		1.21922804		-0.00012399		 0.00024792		 0.00006616
O		1.35420715		2.83776022		12.07177288		 0.00009339		-0.00006764		-0.00025227
O		-1.35420715		2.57316586		5.64956124		-0.00009948		 0.00009517		 0.00023537
O		-0.78594808		3.87381816		12.07177288		-0.00008212		 0.00016936		 0.00046678
O		0.78594808		1.53710880		5.64956124		 0.00005455		-0.00019896		-0.00048009
O		-0.56825906		1.40481185		12.07177288		 0.00012399		-0.00024792		-0.00006616
O		0.56825995		4.00611512		5.64956124		-0.00010652		 0.00023188		 0.00004577
Mg		0.00000000		0.00000000		4.76615297		-0.00015723		-0.00038196		-0.00006735
Mg		0.00000000		0.00000000		8.52484706		 0.00015723		 0.00038196		 0.00006735
Mg		2.22585001		1.35273185		9.19648617		-0.00016041		-0.00037460		-0.00006312
Mg		2.22585001		1.35273185		12.95518114		 0.00015671		 0.00037327		 0.00005705
Mg		0.00000000		2.70546282		0.33581889		-0.00015671		-0.00037327		-0.00005705
Mg		0.00000000		2.70546282		4.09451386		 0.00016041		 0.00037460		 0.00006312
Si		0.00000000		0.00000000		2.08668720		 0.00019799		-0.00047807		-0.00049245
Si		0.00000000		0.00000000		11.20431283		-0.00019799		 0.00047807		 0.00049245
Si		2.22585001		1.35273185		6.51702084		 0.00020302		-0.00047749		-0.00049844
Si		2.22585001		1.35273185		2.34364600		-0.00020486		 0.00047469		 0.00047431
Si		0.00000000		2.70546282		10.94735403		 0.00020486		-0.00047469		-0.00047431
Si		0.00000000		2.70546282		6.77398008		-0.00020302		 0.00047749		 0.00049844
