# total energy = -18528.1579245 eV

CRYSTAL
PRIMVEC
		4.21739994		0.00000000		0.00000000
		-2.10869997		4.05819309		0.00000000
		0.00000000		0.00000000		13.29100094
PRIMECORD
   30 1
O		1.28293306		0.13229688		3.21110596		 0.00033757		 0.00021939		-0.00026842
O		0.82576691		3.92589789		10.07989372		-0.00033757		-0.00021939		 0.00026842
O		3.47281798		1.16835390		3.21110596		 0.00004875		-0.00023293		 0.00045316
O		-1.36411801		2.88984088		10.07989372		-0.00004875		 0.00023293		-0.00045316
O		1.57034887		2.75754315		3.21110596		 0.00029037		 0.00046068		 0.00014825
O		0.53835110		1.30065078		10.07989372		-0.00029037		-0.00046068		-0.00014825
O		3.39163303		1.48502918		7.64143904		 0.00033789		 0.00022455		-0.00027746
O		0.82576691		1.22043415		1.21922797		-0.00035357		-0.00019219		 0.00031311
O		1.36411801		2.52108577		7.64143904		 0.00004649		-0.00020068		 0.00043793
O		2.85328193		0.18437713		1.21922797		-0.00005738		 0.00017202		-0.00040484
O		1.57034887		0.05207983		7.64143904		 0.00027468		 0.00046519		 0.00013329
O		2.64705107		2.65338307		1.21922797		-0.00025325		-0.00047262		-0.00010422
O		1.28293306		2.83775979		12.07177297		 0.00035357		 0.00019219		-0.00031311
O		-1.28293306		2.57316602		5.64956105		-0.00033789		-0.00022455		 0.00027746
O		-0.74458196		3.87381806		12.07177297		 0.00005738		-0.00017202		 0.00040484
O		0.74458196		1.53710901		5.64956105		-0.00004649		 0.00020068		-0.00043793
O		-0.53835110		1.40481212		12.07177297		 0.00025325		 0.00047262		 0.00010422
O		0.53835110		4.00611495		5.64956105		-0.00027468		-0.00046519		-0.00013329
Mg		0.00000000		0.00000000		4.76615283		 0.00002162		-0.00045906		-0.00033435
Mg		0.00000000		0.00000000		8.52484684		-0.00002162		 0.00045906		 0.00033435
Mg		2.10869997		1.35273187		9.19648592		 0.00002306		-0.00043509		-0.00030324
Mg		2.10869997		1.35273187		12.95518077		-0.00000508		 0.00043900		 0.00038124
Mg		0.00000000		2.70546290		0.33581890		 0.00000508		-0.00043900		-0.00038124
Mg		0.00000000		2.70546290		4.09451376		-0.00002306		 0.00043509		 0.00030324
Si		0.00000000		0.00000000		2.08668683		-0.00024918		 0.00012518		-0.00024485
Si		0.00000000		0.00000000		11.20431285		 0.00024918		-0.00012518		 0.00024485
Si		2.10869997		1.35273187		6.51702075		-0.00025119		 0.00012912		-0.00022152
Si		2.10869997		1.35273187		2.34364584		 0.00024030		-0.00013681		 0.00021592
Si		0.00000000		2.70546290		10.94735384		-0.00024030		 0.00013681		-0.00021592
Si		0.00000000		2.70546290		6.77397976		 0.00025119		-0.00012912		 0.00022152
