# total energy = -49447.1843808 eV	

CRYSTAL	
PRIMVEC	
		14.33472938		0.00001402		0.00000000	
		0.00000000		5.23750107		0.00000000	
		0.00000000		0.00001402		8.95149091	
PRIMCOORD
   70 1	
Mg		2.50312827		1.73703503		0.05641294		 0.00014378		-0.00013098		 0.00018377	
Mg		11.83160813		3.50048006		0.05641434		-0.00014068		 0.00013153		 0.00018447	
Mg		9.67048735		0.88173373		4.53215419		 0.00015559		 0.00013065		 0.00018733	
Mg		4.66424624		4.35579117		4.53215980		-0.00015251		-0.00013100		 0.00018624	
Mg		2.54000157		4.42187366		1.63864405		-0.00030443		-0.00026991		 0.00007297	
Mg		11.79473342		0.81564563		1.63863844		 0.00031011		 0.00026741		 0.00007442	
Mg		9.70736205		3.43439477		6.11438530		-0.00029547		 0.00027141		 0.00007068	
Mg		4.62737294		1.80313295		6.11438530		 0.00029496		-0.00027153		 0.00007172	
Mg		4.62870382		1.80359854		2.95288635		 0.00024959		-0.00015605		-0.00021427	
Mg		9.70602977		3.43392216		2.95288775		-0.00024354		 0.00015827		-0.00021245	
Mg		11.79606430		0.81518284		7.42862900		 0.00025767		 0.00015414		-0.00021841	
Mg		2.53866929		4.42234767		7.42863461		-0.00025859		-0.00015406		-0.00021763	
Mg		0.00000000		2.61875614		7.41006262		-0.00000083		 0.00000006		 0.00007423	
Mg		7.16736469		0.00000000		2.93431437		-0.00000233		-0.00000066		 0.00007893	
Mg		0.00000000		2.61875053		1.65412655		-0.00000349		 0.00000009		-0.00022185	
Mg		7.16736329		0.00001683		6.12986499		 0.00000071		-0.00000056		-0.00022504	
Mg		0.00000000		0.00000000		5.95518205		-0.00000095		-0.00000077		 0.00007180	
Mg		7.16736890		2.61875895		1.47944080		-0.00000450		 0.00000151		 0.00007690	
Mg		0.00000000		0.00000000		3.11234764		-0.00000367		 0.00000002		-0.00030116	
Mg		7.16736749		2.61876456		7.58809309		-0.00000162		 0.00000242		-0.00030797	
Si		0.00000000		0.00000000		0.05673129		-0.00000444		-0.00000036		 0.00005192	
Si		7.16736749		2.61876175		4.53247394		-0.00000162		 0.00000117		 0.00005648	
Si		5.40019489		0.08594468		0.05685890		-0.00013146		-0.00015723		-0.00003257	
Si		8.93453870		5.15157602		0.05687012		 0.00013808		 0.00013694		-0.00004961	
Si		12.56755257		2.53282689		4.53260716		-0.00009967		 0.00017099		-0.00004315	
Si		1.76718383		2.70469521		4.53260436		 0.00009774		-0.00016638		-0.00002587	
O		5.92549745		3.73099394		9.00910711		 0.00026654		-0.00022030		-0.00026019	
O		8.40923473		1.50653798		9.00910010		-0.00026046		 0.00023146		-0.00025154	
O		13.09286354		4.12529412		4.53336025		 0.00026218		 0.00020722		-0.00024949	
O		1.24187004		1.11223079		4.53336165		-0.00025839		-0.00020905		-0.00025895	
O		1.12864868		3.65612261		0.05647044		-0.00008799		 0.00022375		-0.00001490	
O		13.20608630		1.58139248		0.05646623		 0.00009155		-0.00022494		-0.00001876	
O		8.29601618		4.20013880		4.53221449		-0.00009203		-0.00022420		-0.00002140	
O		6.03872021		1.03738610		4.53220888		 0.00009226		 0.00022447		-0.00001727	
O		3.54510162		0.11797830		3.11704568		 0.00003639		-0.00059697		-0.00011080	
O		10.78969788		5.11951856		3.11709055		-0.00023205		 0.00067475		-0.00023247	
O		10.71248454		2.50080589		7.59277851		-0.00002539		 0.00057693		-0.00007043	
O		3.62223642		2.73672042		7.59277290		 0.00006288		-0.00056165		-0.00004967	
O		3.62268940		2.73471639		1.47203333		-0.00022790		-0.00033199		 0.00023752	
O		10.71212833		2.50283376		1.47208522		-0.00002010		 0.00023545		 0.00008114	
O		10.79001342		5.12157448		5.94781104		-0.00009507		 0.00027654		 0.00014739	
O		3.54467810		0.11597146		5.94777878		 0.00022722		-0.00032791		 0.00023054	
O		1.04131843		0.75216039		1.34199158		-0.00023972		-0.00046038		 0.00009290	
O		13.29341515		4.48535610		1.34199439		 0.00024604		 0.00046165		 0.00009083	
O		8.20868593		1.86660697		5.81773423		-0.00024585		 0.00045982		 0.00009292	
O		6.12604906		3.37092074		5.81773564		 0.00024377		-0.00046008		 0.00009284	
O		6.12618930		3.37053789		3.24621232		 0.00020113		-0.00026320		 0.00008989	
O		8.20854569		1.86698422		3.24621092		-0.00019750		 0.00026182		 0.00008731	
O		13.29355680		4.48574316		7.72195497		 0.00019905		 0.00026469		 0.00009200	
O		1.04117819		0.75178875		7.72195357		-0.00019841		-0.00026403		 0.00009250	
O		5.92764312		0.88340539		1.44456732		 0.00023766		-0.00004934		-0.00005413	
O		8.40709187		4.35411250		1.44456873		-0.00023423		 0.00004937		-0.00004893	
O		13.09500922		1.73537739		5.92030997		 0.00023383		 0.00004581		-0.00004752	
O		1.23972437		3.50215312		5.92031558		-0.00023069		-0.00005077		-0.00005569	
O		1.23931908		3.50194416		3.14454955		-0.00004694		-0.00007474		 0.00010085	
O		13.09541591		1.73557654		3.14454253		 0.00005077		 0.00007670		 0.00010856	
O		8.40668517		4.35432286		7.62028659		-0.00005225		 0.00008070		 0.00011617	
O		5.92804842		0.88320766		7.62028659		 0.00005375		-0.00007452		 0.00010560	
O		3.72588360		0.05997223		0.05625447		-0.00023646		-0.00014573		 0.00007848	
O		10.60885420		5.17754005		0.05625727		 0.00022932		 0.00014920		 0.00008333	
O		10.89326091		2.55879934		4.53199852		-0.00026296		 0.00014385		 0.00007947	
O		3.44147548		2.67872557		4.53200133		 0.00026127		-0.00014493		 0.00007552	
H		4.40747662		3.04807425		0.97061083		-0.00016359		-0.00003968		 0.00019210	
H		9.92718544		2.18941139		0.97056034		 0.00038984		 0.00013062		 0.00033910	
H		11.57488900		4.80817876		5.44632683		-0.00028906		 0.00009057		 0.00027497	
H		2.75988666		0.42933213		5.44634927		 0.00016823		-0.00004216		 0.00019678	
H		2.76086414		0.43530074		3.61701389		 0.00018513		-0.00044372		-0.00020230	
H		11.57381336		4.80224520		3.61697883		-0.00000792		 0.00037128		-0.00008762	
H		9.92821200		2.18346943		8.09276916		 0.00024201		 0.00046570		-0.00023914	
H		4.40653421		3.05406810		8.09277757		-0.00027427		-0.00047921		-0.00025938	
