# total energy = -49446.2633495 eV	

CRYSTAL	
PRIMVEC	
		14.45307791		0.00001402		0.00000000	
		0.00000000		5.28261627		0.00000000	
		0.00000000		0.00001402		9.02333586	
PRIMCOORD
   70 1	
Mg		2.52947095		1.74128851		0.05780272		 0.00028336		-0.00015805		 0.00007293	
Mg		11.92361398		3.54133758		0.05780693		-0.00028335		 0.00015796		 0.00007456	
Mg		9.75600850		0.90003505		4.56947345		 0.00029453		 0.00015743		 0.00007715	
Mg		4.69708203		4.38259805		4.56947486		-0.00029466		-0.00015757		 0.00007670	
Mg		2.56265594		4.45728005		1.65556962		-0.00033130		-0.00034955		-0.00025227	
Mg		11.89043039		0.82534884		1.65556962		 0.00033404		 0.00034899		-0.00025171	
Mg		9.78919209		3.46665417		6.16723895		-0.00032213		 0.00035144		-0.00025367	
Mg		4.66389985		1.81598173		6.16723474		 0.00031934		-0.00035219		-0.00025410	
Mg		4.66660227		1.81539553		2.97521396		 0.00016026		-0.00000166		-0.00052296	
Mg		9.78648546		3.46723617		2.97521676		-0.00015851		 0.00000236		-0.00052312	
Mg		11.89313842		0.82593785		7.48688469		 0.00016951		-0.00000056		-0.00052749	
Mg		2.55995351		4.45669946		7.48688469		-0.00017117		 0.00000105		-0.00052762	
Mg		0.00000000		2.64131094		7.47048222		 0.00000253		 0.00000042		-0.00008415	
Mg		7.22654176		0.00000000		2.95881149		-0.00000210		 0.00000049		-0.00007932	
Mg		0.00000000		2.64130673		1.66529947		 0.00000009		 0.00000057		-0.00036883	
Mg		7.22654176		0.00000000		6.17697161		-0.00000052		 0.00000043		-0.00037196	
Mg		0.00000000		0.00000000		6.00345827		 0.00000024		-0.00000180		-0.00002573	
Mg		7.22654316		2.64131375		1.49178894		-0.00000004		-0.00000168		-0.00001979	
Mg		0.00000000		0.00000000		3.13346918		-0.00000181		-0.00000126		 0.00032207	
Mg		7.22654597		2.64131936		7.64514553		 0.00000165		-0.00000137		 0.00031441	
Si		0.00000000		0.00000000		0.05634843		 0.00000293		-0.00000077		 0.00014681	
Si		7.22654597		2.64131655		4.56802057		-0.00000278		-0.00000079		 0.00015184	
Si		5.44757637		0.08816047		0.05652513		-0.00004382		-0.00019619		 0.00009229	
Si		9.00551276		5.19446001		0.05653355		 0.00003523		 0.00021234		 0.00008131	
Si		12.67410972		2.55315608		4.56820007		-0.00000584		 0.00023333		 0.00008790	
Si		1.77897801		2.72947141		4.56819306		 0.00001430		-0.00021730		 0.00009858	
O		5.97498113		3.77594367		9.08012885		 0.00013184		-0.00028744		-0.00013730	
O		8.47811361		1.50669925		9.08012605		-0.00013458		 0.00027787		-0.00013018	
O		13.20152149		4.14801019		4.56846092		 0.00013157		 0.00026159		-0.00012923	
O		1.25156764		1.13462571		4.56845671		-0.00012921		-0.00027102		-0.00013412	
O		1.13357111		3.69385418		0.05543547		-0.00018411		 0.00015702		 0.00028605	
O		13.31951522		1.58877190		0.05543968		 0.00018088		-0.00015610		 0.00028318	
O		8.36011287		4.23007443		4.56711041		-0.00018300		-0.00015580		 0.00028064	
O		6.09297486		1.05255867		4.56710620		 0.00018636		 0.00015676		 0.00028304	
O		3.57843527		0.11785349		3.14332665		 0.00024171		-0.00047357		 0.00001641	
O		10.87470716		5.16475578		3.14336873		-0.00040413		 0.00053857		-0.00008721	
O		10.80497562		2.52347428		7.65500019		 0.00024029		 0.00047603		 0.00001639	
O		3.64804479		2.75913498		7.65495111		-0.00002397		-0.00038926		 0.00015604	
O		3.64794943		2.75686028		1.48457078		-0.00004987		-0.00018744		 0.00017579	
O		10.80515653		2.52577562		1.48458481		-0.00000654		 0.00016455		 0.00014208	
O		10.87449680		5.16707534		5.99624432		-0.00006449		 0.00018991		 0.00018242	
O		3.57859233		0.11556056		5.99623731		 0.00006787		-0.00019206		 0.00018119	
O		1.04590568		0.75374931		1.34678218		-0.00030375		-0.00055381		-0.00018053	
O		13.40718204		4.52887818		1.34679060		 0.00030306		 0.00055430		-0.00018203	
O		8.27244745		1.88757145		5.85845572		-0.00030433		 0.00055265		-0.00018109	
O		6.18064169		3.39506306		5.85845572		 0.00030523		-0.00055278		-0.00017958	
O		6.18058419		3.39478258		3.27813796		 0.00020455		-0.00036745		 0.00013584	
O		8.27250214		1.88784912		3.27813796		-0.00019987		 0.00036720		 0.00013553	
O		13.40712875		4.52916147		7.78981010		 0.00020011		 0.00036940		 0.00013970	
O		1.04596599		0.75347724		7.78980168		-0.00020494		-0.00037018		 0.00013997	
O		5.97612970		0.89078622		1.44915457		-0.00003017		 0.00001322		 0.00008298	
O		8.47695663		4.39184407		1.44915598		 0.00003117		-0.00001737		 0.00009043	
O		13.20267146		1.75054856		5.96082671		-0.00003473		-0.00001859		 0.00009015	
O		1.25042048		3.53208875		5.96082671		 0.00003244		 0.00001525		 0.00008257	
O		1.25051724		3.53163297		3.17481193		 0.00020145		 0.00003046		 0.00013610	
O		13.20257049		1.75099873		3.17481474		-0.00020114		-0.00003051		 0.00013878	
O		8.47706181		4.39230125		7.68648127		 0.00019782		-0.00002788		 0.00014482	
O		5.97603013		0.89033746		7.68647846		-0.00019678		 0.00002858		 0.00014232	
O		3.76541725		0.06089361		0.05704402		 0.00009854		-0.00004258		 0.00008747	
O		10.68766627		5.22173388		0.05704963		-0.00009301		 0.00003992		 0.00008936	
O		10.99197164		2.58043416		4.56871616		 0.00006929		 0.00003641		 0.00008700	
O		3.46112030		2.70220034		4.56871476		-0.00007462		-0.00003890		 0.00008295	
H		4.43124450		3.07336653		0.98227599		-0.00026763		-0.00015154		 0.00022070	
H		10.02182500		2.20925395		0.98226758		 0.00031737		 0.00017191		 0.00025266	
H		11.65778907		4.85057050		5.49395094		-0.00025594		 0.00014735		 0.00021366	
H		2.79530147		0.43206260		5.49394392		 0.00025559		-0.00014669		 0.00021408	
H		2.79648089		0.43907600		3.64490622		 0.00008529		-0.00053092		-0.00021794	
H		11.65655916		4.84357533		3.64488098		 0.00006448		 0.00046914		-0.00012035	
H		10.02302405		2.20225317		8.15657836		 0.00008407		 0.00052994		-0.00021695	
H		4.43013380		3.08041219		8.15662043		-0.00028416		-0.00061221		-0.00034766	
