# total energy = -66809.6771938 eV	

CRYSTAL	
PRIMVEC	
		18.34339846		0.00000000		0.00000000	
		0.00000000		6.73129350		0.53850715	
		0.00000000		0.87076112		10.88440400	
PRIMCOORD
   112 1	
Ca		14.17192622		6.92574636		3.05853607		-0.00013158		-0.00025947		-0.00003059	
Ca		4.17147224		0.67630643		8.36436591		 0.00013158		 0.00025947		 0.00003059	
Ca		4.17147224		0.20885060		2.52118639		 0.00044756		 0.00008665		 0.00003526	
Ca		14.17192622		7.39320036		8.90171926		-0.00044756		-0.00008665		-0.00003526	
Ca		13.34317147		3.59217488		3.19026552		 0.00044756		-0.00008665		-0.00003526	
Ca		5.00022699		4.00987608		8.23263830		-0.00044756		 0.00008665		 0.00003526	
Ca		5.00022699		3.60657995		3.19141932		-0.00013158		 0.00025947		 0.00003059	
Ca		13.34317147		3.99547100		8.23148633		 0.00013158		-0.00025947		-0.00003059	
Ca		7.55546239		1.71656972		8.23367286		 0.00042497		 0.00006562		 0.00023898	
Ca		10.78793607		5.88548306		3.18923278		-0.00042497		-0.00006562		-0.00023898	
Ca		10.78793607		6.31848999		8.60182487		 0.00059546		 0.00066203		-0.00009129	
Ca		7.55546239		1.28356280		2.82107711		-0.00059546		-0.00066203		 0.00009129	
Ca		1.61623684		5.08458828		8.53252901		 0.00059546		-0.00066203		 0.00009129	
Ca		16.72716162		2.51746451		2.89037480		-0.00059546		 0.00066203		-0.00009129	
Ca		16.72716162		2.95520954		8.36217938		 0.00042497		-0.00006562		-0.00023898	
Ca		1.61623684		4.64684325		3.06072444		-0.00042497		 0.00006562		 0.00023898	
Ca		6.10413271		5.40388814		0.43231171		 0.00017227		 0.00005143		-0.00038631	
Ca		12.23926575		1.32741269		0.10619360		-0.00017227		-0.00005143		 0.00038631	
Ca		3.06756652		2.47361462		5.60525830		-0.00017227		 0.00005143		-0.00038631	
Ca		15.27583194		5.12843817		5.81764551		 0.00017227		-0.00005143		 0.00038631	
Ca		12.35024332		1.59181260		5.53471510		 0.00011151		-0.00060804		-0.00029541	
Ca		5.99315515		6.01023835		5.88818872		-0.00011151		 0.00060804		 0.00029541	
Ca		15.16485438		4.52208613		0.36176667		-0.00011151		-0.00060804		-0.00029541	
Ca		3.17854409		2.20921287		0.17673681		 0.00011151		 0.00060804		 0.00029541	
Ca		9.17169923		3.36565042		0.26925174		0.00000000		0.00000000		0.00000000	
Ca		0.00000000		0.43537689		5.44220017		0.00000000		0.00000000		0.00000000	
Ca		9.17169923		3.80102548		5.71145191		0.00000000		0.00000000		0.00000000	
Ca		0.00000000		0.00000000		0.00000000		0.00000000		0.00000000		0.00000000	
Si		7.68918577		5.49711113		8.57007428		-0.00029764		 0.00027121		-0.00011938	
Si		10.65421086		2.10494166		2.85282953		 0.00029764		-0.00027121		 0.00011938	
Si		10.65421086		2.54341675		8.33377829		-0.00004281		 0.00012813		 0.00022766	
Si		7.68918577		5.05863420		3.08912552		 0.00004281		-0.00012813		-0.00022766	
Si		1.48251346		2.12836068		8.26207395		-0.00004281		-0.00012813		-0.00022766	
Si		16.86088500		5.47369028		3.16082987		 0.00004281		 0.00012813		 0.00022766	
Si		16.86088500		5.90596714		8.56428327		-0.00029764		-0.00027121		 0.00011938	
Si		1.48251346		1.69608565		2.85862238		 0.00029764		 0.00027121		-0.00011938	
Si		12.17689820		5.38624730		5.83826899		-0.00019482		-0.00040902		-0.00013826	
Si		6.16650026		2.21580549		5.58463482		 0.00019482		 0.00040902		 0.00013826	
Si		15.33819949		1.58522182		0.12681709		 0.00019482		-0.00040902		-0.00013826	
Si		3.00519897		5.14607902		0.41168639		-0.00019482		 0.00040902		 0.00013826	
Si		6.20337049		1.90361186		0.15228873		 0.00024629		 0.00041528		 0.00052788	
Si		12.14002797		4.82768898		0.38621475		-0.00024629		-0.00041528		-0.00052788	
Si		2.96832874		5.70463733		5.86374063		-0.00024629		 0.00041528		 0.00052788	
Si		15.37506972		1.89741362		5.55916318		 0.00024629		-0.00041528		-0.00052788	
Mg		9.17169923		0.43537689		5.44220017		-0.00000000		0.00000000		0.00000000	
Mg		0.00000000		3.36565042		0.26925174		-0.00000000		0.00000000		0.00000000	
Mg		9.17169923		0.00000000		0.00000000		0.00000000		0.00000000		0.00000000	
Mg		0.00000000		3.80102548		5.71145191		0.00000000		0.00000000		0.00000000	
O		5.29573914		1.83617602		1.46629240		-0.00060090		-0.00037287		-0.00015684	
O		13.04765933		5.76587494		9.95661142		 0.00060090		 0.00037287		 0.00015684	
O		13.04765933		5.10758723		1.72800500		-0.00027413		 0.00000664		-0.00076747	
O		5.29573914		2.49446373		9.69489881		 0.00027413		-0.00000664		 0.00076747	
O		3.87596009		5.42473725		4.52195039		-0.00027413		-0.00000664		 0.00076747	
O		14.46743837		2.17731370		6.90095343		 0.00027413		 0.00000664		-0.00076747	
O		14.46743837		1.96484946		4.24515951		-0.00060090		 0.00037287		 0.00015684	
O		3.87596009		5.63720150		7.17774430		 0.00060090		-0.00037287		-0.00015684	
O		12.78168005		6.03525141		4.59566517		-0.00016473		-0.00009754		 0.00024458	
O		5.56171841		1.56680138		6.82723864		 0.00016473		 0.00009754		-0.00024458	
O		5.56171841		1.35834333		4.22151303		 0.00001487		 0.00042094		 0.00007886	
O		12.78168005		6.24370946		7.20139078		-0.00001487		-0.00042094		-0.00007886	
O		14.73341764		2.44268215		1.48993887		 0.00001487		-0.00042094		-0.00007886	
O		3.60998082		5.15936881		9.93296494		-0.00001487		 0.00042094		 0.00007886	
O		3.60998082		4.49707490		1.65429022		-0.00016473		 0.00009754		-0.00024458	
O		14.73341764		3.10497605		9.76861359		 0.00016473		-0.00009754		 0.00024458	
O		8.72595465		6.00584144		9.78763203		 0.00012216		 0.00020124		-0.00065862	
O		9.61744381		1.59621135		1.63527178		-0.00012216		-0.00020124		 0.00065862	
O		9.61744381		2.22419760		9.48509986		 0.00010046		-0.00007977		 0.00042900	
O		8.72595465		5.37785519		1.93780212		-0.00010046		 0.00007977		-0.00042900	
O		0.44574458		2.44758167		7.11075054		 0.00010046		 0.00007977		-0.00042900	
O		17.89765388		5.15447112		4.31215327		-0.00010046		-0.00007977		 0.00042900	
O		17.89765388		5.39723683		7.34672369		 0.00012216		-0.00020124		 0.00065862	
O		0.44574458		2.20481413		4.07618012		-0.00012216		 0.00020124		-0.00065862	
O		6.21712804		6.13761124		8.99355732		-0.00021665		 0.00023600		 0.00061776	
O		12.12627042		1.46444155		2.42934650		 0.00021665		-0.00023600		-0.00061776	
O		12.12627042		1.96285920		8.65957723		 0.00008137		-0.00004635		-0.00071090	
O		6.21712804		5.63919359		2.76332659		-0.00008137		 0.00004635		 0.00071090	
O		2.95457119		2.70891823		7.93627501		 0.00008137		 0.00004635		 0.00071090	
O		15.38882727		4.89313272		3.48662880		-0.00008137		-0.00004635		-0.00071090	
O		15.38882727		5.26546519		8.14079840		-0.00021665		-0.00023600		-0.00061776	
O		2.95457119		2.33658576		3.28210541		 0.00021665		 0.00023600		 0.00061776	
O		6.89711782		3.33805278		0.26704319		 0.00041140		 0.00042156		-0.00046314	
O		11.44628064		3.39324806		0.27146029		-0.00041140		-0.00042156		 0.00046314	
O		2.27458141		7.13907825		5.97849510		-0.00041140		 0.00042156		-0.00046314	
O		16.06881705		0.46297454		5.44440871		 0.00041140		-0.00042156		 0.00046314	
O		7.54830847		3.92112888		8.09057051		-0.00001559		 0.00018916		 0.00009491	
O		10.79508999		3.68092208		3.33233330		 0.00001559		-0.00018916		-0.00009491	
O		10.79508999		4.06248678		8.10187921		 0.00033457		-0.00034943		-0.00017489	
O		7.54830847		3.53956418		3.32102643		-0.00033457		 0.00034943		 0.00017489	
O		1.62339076		7.34059149		9.03247834		 0.00033457		 0.00034943		 0.00017489	
O		16.72000770		0.26146130		2.39042547		-0.00033457		-0.00034943		-0.00017489	
O		16.72000770		0.75064855		8.50528356		-0.00001559		-0.00018916		-0.00009491	
O		1.62339076		6.85140240		2.91762208		 0.00001559		 0.00018916		 0.00009491	
O		7.29700391		0.70342164		0.05627388		-0.00024604		 0.00009558		-0.00024432	
O		11.04639455		6.02787920		0.48222960		 0.00024604		-0.00009558		 0.00024432	
O		1.87469532		4.50444712		5.76772578		 0.00024604		 0.00009558		-0.00024432	
O		16.46870314		3.09760567		5.65517803		-0.00024604		-0.00009558		 0.00024432	
O		10.57313487		5.63059237		5.85781755		-0.00019264		 0.00012336		-0.00028502	
O		7.77026359		1.97145858		5.56508626		 0.00019264		-0.00012336		 0.00028502	
O		16.94196282		1.82956689		0.14636564		 0.00019264		 0.00012336		-0.00028502	
O		1.40143564		4.90173211		0.39213967		-0.00019264		-0.00012336		 0.00028502	
O		12.74132457		3.88583985		5.71823713		 0.00048036		-0.00011549		 0.00001841	
O		5.60207389		3.71621111		5.70466668		-0.00048036		 0.00011549		-0.00001841	
O		14.77377312		0.08481437		0.00678522		-0.00048036		-0.00011549		 0.00001841	
O		3.56962534		6.64648463		0.53171826		 0.00048036		 0.00011549		-0.00001841	
O		8.14997194		6.20924955		7.30570051		 0.00051790		-0.00070174		 0.00011013	
O		10.19342652		1.39280324		4.11720330		-0.00051790		 0.00070174		-0.00011013	
O		10.19342652		1.61850225		6.93843999		-0.00011413		 0.00025491		 0.00011310	
O		8.14997194		5.98355054		4.48446382		 0.00011413		-0.00025491		-0.00011310	
O		1.02172729		3.05327518		9.65741224		-0.00011413		-0.00025491		-0.00011310	
O		17.32167117		4.54877577		1.76549157		 0.00011413		 0.00025491		 0.00011310	
O		17.32167117		5.19382872		9.82865521		 0.00051790		 0.00070174		-0.00011013	
O		1.02172729		2.40822224		1.59424861		-0.00051790		-0.00070174		 0.00011013	
