# total energy = -66796.9390474 eV	

CRYSTAL	
PRIMVEC	
		18.34339846		0.00000000		0.00000000	
		0.00000000		6.73129350		-1.07701430	
		0.00000000		-1.74150391		10.88440400	
PRIMCOORD
   112 1	
Ca		14.17192622		6.32079943		1.44475358		 0.00018666		-0.00024816		 0.00065815	
Ca		4.17147224		-1.33100433		8.36263796		-0.00018666		 0.00024816		-0.00065815	
Ca		4.17147224		-0.39609451		2.51945661		-0.00010226		 0.00002544		-0.00063071	
Ca		14.17192622		5.38589144		7.28793493		 0.00010226		-0.00002544		 0.00063071	
Ca		13.34317147		2.89099297		2.38423825		-0.00010226		-0.00002544		 0.00063071	
Ca		5.00022699		2.09880212		7.42315329		 0.00010226		 0.00002544		-0.00063071	
Ca		5.00022699		2.90539804		2.38193431		 0.00018666		 0.00024816		-0.00065815	
Ca		13.34317147		2.08439705		7.42545722		-0.00018666		-0.00024816		 0.00065815	
Ca		7.55546239		-0.23906951		7.97814749		-0.00085068		 0.00027762		-0.00036905	
Ca		10.78793607		5.22886644		1.82924405		 0.00085068		-0.00027762		 0.00036905	
Ca		10.78793607		4.36285075		7.24183981		-0.00010255		-0.00014065		-0.00023736	
Ca		7.55546239		0.62694434		2.56555357		 0.00010255		 0.00014065		 0.00023736	
Ca		1.61623684		3.12184281		7.46924842		-0.00010255		 0.00014065		 0.00023736	
Ca		16.72716162		1.86795229		2.33814312		 0.00010255		-0.00014065		-0.00023736	
Ca		16.72716162		0.99246407		7.80994953		-0.00085068		-0.00027762		 0.00036905	
Ca		1.61623684		3.99733103		1.99744384		 0.00085068		 0.00027762		-0.00036905	
Ca		6.10413271		5.40388814		-0.86462159		 0.00022454		 0.00035476		-0.00061434	
Ca		12.23926575		1.32741269		-0.21238537		-0.00022454		-0.00035476		 0.00061434	
Ca		3.06756652		1.16748577		5.11608206		-0.00022454		 0.00035476		-0.00061434	
Ca		15.27583194		3.82230932		4.69130948		 0.00022454		-0.00035476		 0.00061434	
Ca		12.35024332		0.28568559		5.25717031		-0.00028685		-0.00010094		-0.00002702	
Ca		5.99315515		4.70410951		4.55022123		 0.00028685		 0.00010094		 0.00002702	
Ca		15.16485438		4.52208613		-0.72353334		 0.00028685		-0.00010094		-0.00002702	
Ca		3.17854409		2.20921287		-0.35347362		-0.00028685		 0.00010094		 0.00002702	
Ca		9.17169923		3.36565042		-0.53850348		0.00000000		0.00000000		0.00000000	
Ca		0.00000000		-0.87075195		5.44220017		0.00000000		0.00000000		0.00000000	
Ca		9.17169923		2.49489847		4.90369669		0.00000000		0.00000000		0.00000000	
Ca		0.00000000		0.00000000		0.00000000		0.00000000		0.00000000		0.00000000	
Si		7.68918577		3.53326872		7.40787508		 0.00033239		 0.00003259		-0.00000607	
Si		10.65421086		1.45652637		2.39951830		-0.00033239		-0.00003259		 0.00000607	
Si		10.65421086		0.57957435		7.88046522		-0.00027862		 0.00000149		-0.00011923	
Si		7.68918577		4.41022075		1.92692632		 0.00027862		-0.00000149		 0.00011923	
Si		1.48251346		0.17381838		7.90762996		-0.00027862		-0.00000149		 0.00011923	
Si		16.86088500		4.81597672		1.89976158		 0.00027862		 0.00000149		-0.00011923	
Si		16.86088500		3.95142484		7.30321315		 0.00033239		-0.00003259		 0.00000607	
Si		1.48251346		1.03837026		2.50417839		-0.00033239		 0.00003259		-0.00000607	
Si		12.17689820		4.08011845		4.65006068		-0.00011827		-0.00028524		 0.00008664	
Si		6.16650026		0.90967664		5.15733269		 0.00011827		 0.00028524		-0.00008664	
Si		15.33819949		1.58522182		-0.25363417		 0.00011827		-0.00028524		 0.00008664	
Si		3.00519897		5.14607902		-0.82337279		-0.00011827		 0.00028524		-0.00008664	
Si		6.20337049		1.90361186		-0.30457746		-0.00015010		-0.00013169		-0.00001157	
Si		12.14002797		4.82768898		-0.77242950		 0.00015010		 0.00013169		 0.00001157	
Si		2.96832874		4.39850849		4.59911740		 0.00015010		-0.00013169		-0.00001157	
Si		15.37506972		0.59128661		5.20827414		-0.00015010		 0.00013169		 0.00001157	
Mg		9.17169923		-0.87075195		5.44220017		0.00000000		0.00000000		0.00000000	
Mg		0.00000000		3.36565042		-0.53850348		0.00000000		0.00000000		0.00000000	
Mg		9.17169923		0.00000000		0.00000000		-0.00000000		0.00000000		0.00000000	
Mg		0.00000000		2.49489847		4.90369669		0.00000000		0.00000000		0.00000000	
O		5.29573914		1.51748148		1.05110608		 0.00029232		 0.00045430		 0.00021269	
O		13.04765933		3.47231545		8.75628729		-0.00029232		-0.00045430		-0.00021269	
O		13.04765933		4.78889269		0.52768087		-0.00029956		 0.00048767		 0.00007273	
O		5.29573914		0.20090240		9.27971250		 0.00029956		-0.00048767		-0.00007273	
O		3.87596009		4.43730477		3.29900885		-0.00029956		-0.00048767		-0.00007273	
O		14.46743837		0.55249032		6.50838452		 0.00029956		 0.00048767		 0.00007273	
O		14.46743837		0.97741698		3.85259061		 0.00029232		-0.00045430		-0.00021269	
O		3.87596009		4.01237811		5.95480093		-0.00029232		 0.00045430		 0.00021269	
O		12.78168005		5.04180964		3.22668083		 0.00031386		-0.00000366		-0.00001562	
O		5.56171841		-0.05201454		6.58071254		-0.00031386		 0.00000366		 0.00001562	
O		5.56171841		0.36490156		3.97498510		 0.00012148		 0.00066225		 0.00045034	
O		12.78168005		4.62489354		5.83240644		-0.00012148		-0.00066225		-0.00045034	
O		14.73341764		2.12999507		0.92870976		 0.00012148		-0.00066225		-0.00045034	
O		3.60998082		2.85980002		8.87868178		-0.00012148		 0.00066225		 0.00045034	
O		3.60998082		4.18438783		0.60000706		 0.00031386		 0.00000366		 0.00001562	
O		14.73341764		0.80540726		9.20738448		-0.00031386		-0.00000366		-0.00001562	
O		8.72595465		3.75773322		8.52607948		 0.00034738		 0.00075598		-0.00016648	
O		9.61744381		1.23206187		1.28131206		-0.00034738		-0.00075598		 0.00016648	
O		9.61744381		-0.02391062		9.13114198		-0.00053088		-0.00009902		-0.00038632	
O		8.72595465		5.01370572		0.67624956		 0.00053088		 0.00009902		 0.00038632	
O		0.44574458		0.77730334		6.65695321		-0.00053088		 0.00009902		 0.00038632	
O		17.89765388		4.21249175		3.15043833		 0.00053088		-0.00009902		-0.00038632	
O		17.89765388		3.72696034		6.18500875		 0.00034738		-0.00075598		 0.00016648	
O		0.44574458		1.26283659		3.62238279		-0.00034738		 0.00075598		-0.00016648	
O		6.21712804		4.08385500		7.68483104		 0.00020711		-0.00002601		-0.00033347	
O		12.12627042		0.90594009		2.12256049		-0.00020711		 0.00002601		 0.00033347	
O		12.12627042		-0.09089704		8.35279122		-0.00002472		 0.00030323		 0.00012321	
O		6.21712804		5.08069214		1.45460031		 0.00002472		-0.00030323		-0.00012321	
O		2.95457119		0.84429160		7.43530396		-0.00002472		-0.00030323		-0.00012321	
O		15.38882727		4.14550533		2.37208758		 0.00002472		 0.00030323		 0.00012321	
O		15.38882727		3.40083856		7.02625718		 0.00020711		 0.00002601		 0.00033347	
O		2.95457119		1.58895837		2.78113436		-0.00020711		-0.00002601		-0.00033347	
O		6.89711782		3.33805278		-0.53408822		 0.00001198		-0.00013710		-0.00024049	
O		11.44628064		3.39324806		-0.54292057		-0.00001198		 0.00013710		 0.00024049	
O		2.27458141		5.83294941		4.36960846		-0.00001198		-0.00013710		-0.00024049	
O		16.06881705		-0.84315431		5.43778308		 0.00001198		 0.00013710		 0.00024049	
O		7.54830847		2.04265665		7.29977743		 0.00046947		 0.00014277		-0.00035583	
O		10.79508999		2.94714028		2.50761411		-0.00046947		-0.00014277		 0.00035583	
O		10.79508999		2.18401271		7.27716002		-0.00005995		-0.00000493		-0.00028073	
O		7.54830847		2.80578238		2.53023335		 0.00005995		 0.00000493		 0.00028073	
O		1.62339076		5.30068085		7.43392821		-0.00005995		 0.00000493		 0.00028073	
O		16.72000770		-0.31088575		2.37346333		 0.00005995		-0.00000493		-0.00028073	
O		16.72000770		-1.28926209		8.48831959		 0.00046947		-0.00014277		 0.00035583	
O		1.62339076		6.27905719		1.31907378		-0.00046947		 0.00014277		-0.00035583	
O		7.29700391		0.70342164		-0.11254776		 0.00020427		 0.00027272		-0.00005012	
O		11.04639455		6.02787920		-0.96446104		-0.00020427		-0.00027272		 0.00005012	
O		1.87469532		3.19831827		4.79114893		-0.00020427		 0.00027272		-0.00005012	
O		16.46870314		1.79147683		5.01624444		 0.00020427		-0.00027272		 0.00005012	
O		10.57313487		4.32446536		4.61096540		-0.00038797		 0.00023439		 0.00073139	
O		7.77026359		0.66533157		5.19642614		 0.00038797		-0.00023439		-0.00073139	
O		16.94196282		1.82956689		-0.29273129		 0.00038797		 0.00023439		 0.00073139	
O		1.40143564		4.90173211		-0.78427750		-0.00038797		-0.00023439		-0.00073139	
O		12.74132457		2.57971284		4.89012624		 0.00016061		-0.00007762		-0.00013393	
O		5.60207389		2.41008226		4.91726530		-0.00016061		 0.00007762		 0.00013393	
O		14.77377312		0.08481437		-0.01357045		-0.00016061		-0.00007762		-0.00013393	
O		3.56962534		6.64648463		-1.06343835		 0.00016061		 0.00007762		 0.00013393	
O		8.14997194		4.56457127		5.94705452		-0.00002870		 0.00053806		 0.00047155	
O		10.19342652		0.42522382		3.86033702		 0.00002870		-0.00053806		-0.00047155	
O		10.19342652		-0.02617420		6.68157372		 0.00073473		 0.00048713		 0.00036142	
O		8.14997194		5.01596929		3.12581782		-0.00073473		-0.00048713		-0.00036142	
O		1.02172729		0.77956875		9.10652147		 0.00073473		-0.00048713		-0.00036142	
O		17.32167117		4.21022818		0.70087007		-0.00073473		 0.00048713		 0.00036142	
O		17.32167117		2.92012045		8.76403371		-0.00002870		-0.00053806		-0.00047155	
O		1.02172729		2.06967464		1.04335783		 0.00002870		 0.00053806		 0.00047155	
