# total energy = -35726.1008821 eV

CRYSTAL
PRIMVEC
		7.86029970		0.00000000		0.00000000
		-3.93014985		6.80721605		0.00000000
		0.00000000		0.00000000		9.09435103
PRIMECORD
   46 1
Mg		1.13856520		3.09524297		3.50769097		-0.00037223		 0.00002854		-0.00017576
Mg		0.68030894		6.24562357		3.50769097		 0.00016140		-0.00033664		-0.00017576
Mg		-1.81887414		4.27357185		3.50769097		 0.00021084		 0.00030809		-0.00017576
Mg		2.79158465		3.71197701		8.05486570		 0.00037223		-0.00002854		-0.00017576
Mg		3.24984091		0.56159483		8.05486570		-0.00016140		 0.00033664		-0.00017576
Mg		5.74902399		2.53364656		8.05486570		-0.00021084		-0.00030809		-0.00017576
Mg		0.81196896		1.65960010		1.02493278		-0.00020912		 0.00033108		-0.00005106
Mg		2.08690957		6.68060470		1.02493278		-0.00018216		-0.00034664		-0.00005106
Mg		-2.89887853		5.27423359		1.02493278		 0.00039129		 0.00001556		-0.00005106
Mg		3.11818089		5.14761988		5.57210751		 0.00020912		-0.00033108		-0.00005106
Mg		1.84324028		0.12661371		5.57210751		 0.00018216		 0.00034664		-0.00005106
Mg		6.82902838		1.53298560		5.57210751		-0.00039129		-0.00001556		-0.00005106
Mg		0.00000000		4.53814560		0.93580877		0.00000000		-0.00000000		-0.00062983
Mg		3.93014985		2.26907280		5.48298350		-0.00000000		0.00000000		-0.00062983
Si		3.93014985		2.26907280		1.58332611		0.00000000		0.00000000		 0.00079229
Si		0.00000000		4.53814560		6.13050084		0.00000000		0.00000000		 0.00079229
Si		0.00000000		0.00000000		3.65410949		-0.00000000		-0.00000000		-0.00013341
Si		0.00000000		0.00000000		8.20128501		-0.00000000		-0.00000000		-0.00013341
O		1.46515986		0.18651784		8.87608545		-0.00066779		 0.00031629		 0.00012923
O		6.96619061		1.17560686		8.87608545		 0.00005998		-0.00073647		 0.00012923
O		3.35909908		5.44509450		8.87608545		 0.00060781		 0.00042018		 0.00012923
O		2.46498999		6.62070214		4.32891072		 0.00066779		-0.00031629		 0.00012923
O		-3.03604076		5.63161312		4.32891072		-0.00005998		 0.00073647		 0.00012923
O		0.57105077		1.36212470		4.32891072		-0.00060781		-0.00042018		 0.00012923
O		3.35792003		0.67255318		4.40530261		 0.00057614		 0.00040861		-0.00000138
O		5.59889148		2.57176666		4.40530261		-0.00064193		 0.00029465		-0.00000138
O		2.83363804		3.56289857		4.40530261		 0.00006579		-0.00070325		-0.00000138
O		0.57222982		6.13466601		8.95247734		-0.00057614		-0.00040861		-0.00000138
O		-1.66874163		4.23545175		8.95247734		 0.00064193		-0.00029465		-0.00000138
O		1.09651181		3.24432062		8.95247734		-0.00006579		 0.00070325		-0.00000138
O		2.40878884		2.00608761		2.10988916		 0.00000625		-0.00044524		-0.00015125
O		4.91858254		1.08302904		2.10988916		 0.00038246		 0.00022802		-0.00015125
O		4.46307817		3.71810412		2.10988916		-0.00038871		 0.00021721		-0.00015125
O		1.52136101		4.80113158		6.65706389		-0.00000625		 0.00044524		-0.00015125
O		-0.98843269		5.72419094		6.65706389		-0.00038246		-0.00022802		-0.00015125
O		-0.53292832		3.08911586		6.65706389		 0.00038871		-0.00021721		-0.00015125
O		-0.37690137		2.97271268		2.18082522		 0.00006818		 0.00026553		 0.00008413
O		1.54415588		4.99445644		2.18082522		-0.00026404		-0.00007372		 0.00008413
O		-1.16725529		5.64726848		2.18082522		 0.00019586		-0.00019181		 0.00008413
O		4.30705122		3.83450651		6.72799995		-0.00006818		-0.00026553		 0.00008413
O		2.38599397		1.81276275		6.72799995		 0.00026404		 0.00007372		 0.00008413
O		5.09740514		1.15994993		6.72799995		-0.00019586		 0.00019181		 0.00008413
O		3.93014985		2.26907280		0.00000000		-0.00000000		-0.00000000		 0.00087197
O		0.00000000		4.53814560		4.54717473		0.00000000		0.00000000		 0.00087197
O		0.00000000		0.00000000		2.11261668		0.00000000		0.00000000		-0.00040273
O		0.00000000		0.00000000		6.65979141		0.00000000		0.00000000		-0.00040273
