# total energy = -14249.4660216 eV

CRYSTAL
PRIMVEC
		8.64599978		0.00000000		0.00000000
		0.00000000		7.86000059		0.00000000
		0.00000000		0.00000000		5.02400026
PRIMECORD
   24 1
O		1.21554111		2.82496284		1.27780355		-0.00007558		 0.00033663		 0.00082089
O		7.43045867		5.03503775		1.27780355		 0.00007558		-0.00033663		 0.00082089
O		3.10745878		6.75496314		3.74619585		 0.00007558		 0.00033663		-0.00082089
O		5.53854100		1.10503659		3.74619585		-0.00007558		-0.00033663		-0.00082089
O		0.71606170		1.46384558		3.96062010		 0.00003201		-0.00049422		 0.00052594
O		7.92993808		6.39615415		3.96062010		-0.00003201		 0.00049422		 0.00052594
O		1.61023100		7.20903462		1.06338016		 0.00051334		 0.00006192		 0.00040698
O		7.03576878		0.65096511		1.06338016		-0.00051334		-0.00006192		 0.00040698
O		3.60693819		5.39384674		1.06338016		-0.00003201		-0.00049422		-0.00052594
O		5.03906159		2.46615385		1.06338016		 0.00003201		 0.00049422		-0.00052594
O		2.71276889		3.27903519		3.96062010		-0.00051334		 0.00006192		-0.00040698
O		5.93323089		4.58096453		3.96062010		 0.00051334		-0.00006192		-0.00040698
O		0.00000000		3.93000029		4.11616250		0.00000000		0.00000000		-0.00012838
O		4.32299989		0.00000000		0.90783689		0.00000000		0.00000000		 0.00012838
Ca		2.86754958		1.32313712		2.54686685		 0.00031429		 0.00004121		-0.00007405
Ca		5.77845020		6.53686261		2.54686685		-0.00031429		-0.00004121		-0.00007405
Ca		1.45545031		5.25313655		2.47713254		-0.00031429		 0.00004121		 0.00007405
Ca		7.19054947		2.60686318		2.47713254		 0.00031429		-0.00004121		 0.00007405
Si		1.20966183		2.83030694		4.69934902		 0.00022809		-0.00027853		 0.00046860
Si		7.43633795		5.02969279		4.69934902		-0.00022809		 0.00027853		 0.00046860
Si		3.11333806		6.76030809		0.32465124		-0.00022809		-0.00027853		-0.00046860
Si		5.53266172		1.09969336		0.32465124		 0.00022809		 0.00027853		-0.00046860
Mg		0.00000000		0.00000000		0.00000000		0.00000000		0.00000000		-0.00079239
Mg		4.32299989		3.93000029		0.00000000		0.00000000		0.00000000		 0.00079239
