# total energy = -14250.1870216 eV

CRYSTAL
PRIMVEC
		8.25299999		0.00000000		0.00000000
		0.00000000		7.86000038		0.00000000
		0.00000000		0.00000000		5.02399724
PRIMECORD
   24 1
O		1.16028927		2.82496311		1.27780373		-0.00015749		 0.00056263		 0.00057043
O		7.09271072		5.03503810		1.27780373		 0.00015749		-0.00056263		 0.00057043
O		2.96621072		6.75496330		3.74619598		 0.00015749		 0.00056263		-0.00057043
O		5.28678926		1.10503708		3.74619598		-0.00015749		-0.00056263		-0.00057043
O		0.68351263		1.46384616		3.96061964		 0.00071264		 0.00016825		-0.00016083
O		7.56948735		6.39615422		3.96061964		-0.00071264		-0.00016825		-0.00016083
O		1.53703872		7.20903510		1.06338007		 0.00015838		 0.00016635		 0.00023506
O		6.71596127		0.65096528		1.06338007		-0.00015838		-0.00016635		 0.00023506
O		3.44298736		5.39384718		1.06338007		-0.00071264		 0.00016825		 0.00016083
O		4.81001428		2.46615403		1.06338007		 0.00071264		-0.00016825		 0.00016083
O		2.58946128		3.27903491		3.96061964		-0.00015838		 0.00016635		-0.00023506
O		5.66353871		4.58096464		3.96061964		 0.00015838		-0.00016635		-0.00023506
O		0.00000000		3.93000019		4.11616311		0.00000000		0.00000000		-0.00023131
O		4.12649999		0.00000000		0.90783660		0.00000000		0.00000000		 0.00023131
Ca		2.73720731		1.32313664		2.54686672		 0.00049212		-0.00041029		-0.00017694
Ca		5.51579433		6.53686292		2.54686672		-0.00049212		 0.00041029		-0.00017694
Ca		1.38929434		5.25313683		2.47713299		-0.00049212		-0.00041029		 0.00017694
Ca		6.86370730		2.60686273		2.47713299		 0.00049212		 0.00041029		 0.00017694
Si		1.15467723		2.83030692		4.69934897		-0.00014778		-0.00006270		 0.00068944
Si		7.09832276		5.02969263		4.69934897		 0.00014778		 0.00006270		 0.00068944
Si		2.97182276		6.76030794		0.32465074		 0.00014778		-0.00006270		-0.00068944
Si		5.28117722		1.09969327		0.32465074		-0.00014778		 0.00006270		-0.00068944
Mg		0.00000000		0.00000000		0.00000000		0.00000000		0.00000000		 0.00082298
Mg		4.12649999		3.93000019		0.00000000		0.00000000		0.00000000		-0.00082298
