# total energy = -7658.49562201 eV

CRYSTAL
PRIMVEC
		5.37019616		0.00000000		0.00002770
		-2.68509531		4.65074179		-0.00007203
		0.00002216		-0.00006095		4.42767875
PRIMECORD
   15 1
Mg		0.00000000		0.00000000		0.00000000		-0.00000140		 0.00000175		 0.00000038
Mg		0.00000000		3.10049711		-0.06985715		-0.00000236		 0.00000377		-0.00015876
Mg		2.68512191		1.55019204		4.49749489		-0.00000077		-0.00000067		 0.00015907
O		0.87459730		1.56148233		1.04634792		 0.00012266		 0.00009322		 0.00015939
O		1.81049912		3.08922179		3.38128927		-0.00011192		-0.00009630		-0.00017113
O		0.89552175		4.62752072		1.04634294		-0.00013557		 0.00004062		 0.00011227
O		1.78959849		0.02319891		3.38129647		 0.00013402		-0.00005293		-0.00009999
O		-1.77014676		3.11255368		1.04632631		 0.00001955		-0.00013667		 0.00014922
O		4.45526589		1.53813548		3.38131032		-0.00002121		 0.00014080		-0.00014697
H		0.67020364		1.67003794		1.98514698		-0.00003195		-0.00009276		-0.00009729
H		2.01495373		2.98063293		2.44250074		 0.00002711		 0.00009504		 0.00010585
H		0.90370204		4.39597264		1.98505334		 0.00009332		 0.00002791		-0.00005235
H		1.78142430		0.25467440		2.44257665		-0.00009180		-0.00002178		 0.00004151
H		-1.57383199		3.23530789		1.98509656		-0.00006831		 0.00007308		-0.00008713
H		4.25895667		1.41537739		2.44253953		 0.00006863		-0.00007508		 0.00008593
