# total energy = -20631.8251709 eV

CRYSTAL
PRIMVEC
		10.10999695		0.00000000		-0.80879773
		0.00000000		5.76999514		0.00000000
		-0.37599535		0.00000000		4.70000276
PRIMECORD
   28 1
Si		8.18354513		2.88499960		3.43243025		 0.00028187		0.00000000		 0.00016803
Si		1.55045546		2.88499960		0.45876971		-0.00028187		0.00000000		-0.00016803
Si		2.92970381		0.00000000		3.88636107		-0.00069249		0.00000000		 0.00003296
Si		6.80429575		0.00000000		0.00483889		 0.00069249		0.00000000		-0.00003296
Mg		5.05499949		2.88499960		-0.40439988		0.00000000		0.00000000		0.00000000
Mg		-0.18799970		0.00000000		2.35000036		0.00000000		0.00000000		0.00000000
Mg		-0.18799970		2.88499960		2.35000036		0.00000000		0.00000000		0.00000000
Mg		4.86699978		0.00000000		1.94559947		0.00000000		0.00000000		0.00000000
Mg		2.32167799		1.45807939		2.14455590		 0.00009844		 0.00072235		-0.00024961
Mg		7.41232158		4.31192082		1.74664405		-0.00009844		-0.00072235		 0.00024961
Mg		7.41232158		1.45807939		1.74664405		-0.00009844		 0.00072235		 0.00024961
Mg		2.32167799		4.31192082		2.14455590		 0.00009844		-0.00072235		-0.00024961
O		3.10954607		2.88499960		0.73425385		-0.00018186		-0.00000000		-0.00038971
O		6.62445350		2.88499960		3.15694509		 0.00018186		-0.00000000		 0.00038971
O		1.36839914		2.88499960		3.51298445		 0.00046924		0.00000000		-0.00043484
O		8.36560043		2.88499960		0.37821449		-0.00046924		0.00000000		 0.00043484
O		8.30859563		0.00000000		0.42527172		-0.00008911		0.00000000		 0.00078143
O		1.42540292		0.00000000		3.46592824		 0.00008911		0.00000000		-0.00078143
O		3.27981196		0.00000000		0.81590038		-0.00011759		-0.00000000		 0.00015860
O		6.45418761		0.00000000		3.07529958		 0.00011759		-0.00000000		-0.00015860
O		0.77436969		1.50077746		1.00606141		 0.00016178		-0.00046840		-0.00063801
O		8.95962988		4.26922275		2.88513855		-0.00016178		 0.00046840		 0.00063801
O		8.95962988		1.50077746		2.88513855		-0.00016178		-0.00046840		 0.00063801
O		0.77436969		4.26922275		1.00606141		 0.00016178		 0.00046840		-0.00063801
O		5.91415577		1.31613688		0.55891985		 0.00070600		-0.00000478		 0.00059592
O		3.81984380		4.45386333		3.33228011		-0.00070600		 0.00000478		-0.00059592
O		3.81984380		1.31613688		3.33228011		-0.00070600		-0.00000478		-0.00059592
O		5.91415577		4.45386333		0.55891985		 0.00070600		 0.00000478		 0.00059592
