# total energy = -20632.2923898 eV

CRYSTAL
PRIMVEC
		10.10999695		0.00000000		0.80879773
		0.00000000		5.76999514		0.00000000
		0.37599535		0.00000000		4.70000276
PRIMECORD
   28 1
Si		8.84169521		2.88499960		4.79444887		-0.00050281		0.00000000		 0.00043346
Si		1.64430520		2.88499960		0.71434959		 0.00050281		0.00000000		-0.00043346
Si		3.59326786		0.00000000		4.40819864		 0.00017330		-0.00000000		 0.00012808
Si		6.89273053		0.00000000		1.10060083		-0.00017330		-0.00000000		-0.00012808
Mg		5.05499949		2.88499960		0.40439988		0.00000000		0.00000000		0.00000000
Mg		0.18799970		0.00000000		2.35000036		0.00000000		0.00000000		0.00000000
Mg		0.18799970		2.88499960		2.35000036		0.00000000		0.00000000		0.00000000
Mg		5.24300021		0.00000000		2.75440024		0.00000000		0.00000000		0.00000000
Mg		2.69692585		1.45807939		2.54604393		-0.00048065		 0.00051916		 0.00004723
Mg		7.78907355		4.31192082		2.96275554		 0.00048065		-0.00051916		-0.00004723
Mg		7.78907355		1.45807939		2.96275554		 0.00048065		 0.00051916		-0.00004723
Mg		2.69692585		4.31192082		2.54604393		-0.00048065		-0.00051916		 0.00004723
O		3.26784202		2.88499960		1.24444502		 0.00002683		-0.00000000		-0.00046090
O		7.21815738		2.88499960		4.26435344		-0.00002683		-0.00000000		 0.00046090
O		1.95172542		2.88499960		3.77859507		-0.00006309		0.00000000		 0.00034787
O		8.53427398		2.88499960		1.73020541		 0.00006309		0.00000000		-0.00034787
O		8.48411321		0.00000000		1.76868834		-0.00030881		0.00000000		-0.00000590
O		2.00188619		0.00000000		3.74011214		 0.00030881		0.00000000		 0.00000590
O		3.45344814		0.00000000		1.35455997		 0.00040287		0.00000000		 0.00029945
O		7.03255126		0.00000000		4.15423848		-0.00040287		0.00000000		-0.00029945
O		0.94635166		1.50077746		1.14371879		-0.00019542		-0.00005986		 0.00008042
O		9.53964774		4.26922275		4.36508068		 0.00019542		 0.00005986		-0.00008042
O		9.53964774		1.50077746		4.36508068		 0.00019542		-0.00005986		-0.00008042
O		0.94635166		4.26922275		1.14371879		-0.00019542		 0.00005986		 0.00008042
O		6.08034750		1.31613688		1.51847983		-0.00020544		 0.00073688		 0.00016176
O		4.40565191		4.45386333		3.99031964		 0.00020544		-0.00073688		-0.00016176
O		4.40565191		1.31613688		3.99031964		 0.00020544		 0.00073688		-0.00016176
O		6.08034750		4.45386333		1.51847983		-0.00020544		-0.00073688		 0.00016176
