# total energy = -20628.8178811 eV

CRYSTAL
PRIMVEC
		10.11000123		0.00000000		-1.21319770
		0.00000000		5.77000270		0.00000000
		-0.56400023		0.00000000		4.70000193
PRIMECORD
   28 1
Si		8.01900619		2.88500033		3.09192464		-0.00045002		-0.00000000		 0.00023105
Si		1.52699277		2.88500033		0.39487449		 0.00045002		-0.00000000		-0.00023105
Si		2.76381191		0.00000000		3.75590104		-0.00043946		0.00000000		-0.00027594
Si		6.78218705		0.00000000		-0.26910190		 0.00043946		0.00000000		 0.00027594
Mg		5.05499960		2.88500033		-0.60659987		0.00000000		0.00000000		0.00000000
Mg		-0.28200012		0.00000000		2.34999995		0.00000000		0.00000000		0.00000000
Mg		-0.28200012		2.88500033		2.34999995		0.00000000		0.00000000		0.00000000
Mg		4.77299948		0.00000000		1.74340008		0.00000000		0.00000000		0.00000000
Mg		2.22786557		1.45807944		2.04418391		 0.00025823		 0.00049710		-0.00053020
Mg		7.31813339		4.31192122		1.44261625		-0.00025823		-0.00049710		 0.00053020
Mg		7.31813339		1.45807944		1.44261625		-0.00025823		 0.00049710		 0.00053020
Mg		2.22786557		4.31192122		2.04418391		 0.00025823		-0.00049710		-0.00053020
O		3.06997212		2.88500033		0.60670679		 0.00080328		0.00000000		-0.00031303
O		6.47602786		2.88500033		2.88009337		-0.00080328		0.00000000		 0.00031303
O		1.22256665		2.88500033		3.44658221		 0.00043706		0.00000000		-0.00065191
O		8.32343129		2.88500033		0.04021794		-0.00043706		0.00000000		 0.00065191
O		8.26471678		0.00000000		0.08941688		 0.00006751		0.00000000		 0.00093830
O		1.28128218		0.00000000		3.39738327		-0.00006751		0.00000000		-0.00093830
O		3.23640152		0.00000000		0.68123375		-0.00001223		-0.00000000		-0.00041514
O		6.30959642		0.00000000		2.80556538		 0.00001223		-0.00000000		 0.00041514
O		0.73137356		1.50077683		0.97164668		 0.00037438		-0.00003243		-0.00061221
O		8.81462541		4.26922281		2.51515246		-0.00037438		 0.00003243		 0.00061221
O		8.81462541		1.50077683		2.51515246		-0.00037438		-0.00003243		 0.00061221
O		0.73137356		4.26922281		0.97164668		 0.00037438		 0.00003243		-0.00061221
O		5.87260799		1.31613699		0.31902991		 0.00037149		-0.00009481		 0.00033860
O		3.67339199		4.45386265		3.16777025		-0.00037149		 0.00009481		-0.00033860
O		3.67339199		1.31613699		3.16777025		-0.00037149		-0.00009481		-0.00033860
O		5.87260799		4.45386265		0.31902991		 0.00037149		 0.00009481		 0.00033860
