# total energy = -20624.2786482 eV

CRYSTAL
PRIMVEC
		10.11000334		0.00000000		-1.61760504
		0.00000000		5.76999823		0.00000000
		-0.75200394		0.00000000		4.70000416
PRIMECORD
   28 1
Si		7.85446863		2.88500014		2.75142135		 0.00046848		0.00000000		-0.00018633
Si		1.50352974		2.88500014		0.33097880		-0.00046848		0.00000000		 0.00018633
Si		2.59792134		0.00000000		3.62544164		-0.00018349		0.00000000		 0.00041038
Si		6.76007805		0.00000000		-0.54304149		 0.00018349		0.00000000		-0.00041038
Mg		5.05499962		2.88500014		-0.80880047		0.00000000		0.00000000		0.00000000
Mg		-0.37599992		0.00000000		2.35000003		0.00000000		0.00000000		0.00000000
Mg		-0.37599992		2.88500014		2.35000003		0.00000000		0.00000000		0.00000000
Mg		4.67899970		0.00000000		1.54119956		0.00000000		0.00000000		0.00000000
Mg		2.13405384		1.45807860		1.94381163		 0.00073419		-0.00020115		-0.00063948
Mg		7.22394555		4.31192066		1.13858750		-0.00073419		 0.00020115		 0.00063948
Mg		7.22394555		1.45807860		1.13858750		-0.00073419		-0.00020115		 0.00063948
Mg		2.13405384		4.31192066		1.94381163		 0.00073419		 0.00020115		-0.00063948
O		3.03039835		2.88500014		0.47915884		 0.00036908		-0.00000000		 0.00005099
O		6.32760207		2.88500014		2.60324131		-0.00036908		-0.00000000		-0.00005099
O		1.07673618		2.88500014		3.38018032		 0.00039869		0.00000000		 0.00031571
O		8.28126322		2.88500014		-0.29778017		-0.00039869		0.00000000		-0.00031571
O		8.22083813		0.00000000		-0.24643671		-0.00029878		0.00000000		-0.00007728
O		1.13716228		0.00000000		3.32883686		 0.00029878		0.00000000		 0.00007728
O		3.19299330		0.00000000		0.54656869		-0.00021548		-0.00000000		-0.00013867
O		6.16500712		0.00000000		2.53583044		 0.00021548		-0.00000000		 0.00013867
O		0.68837930		1.50077659		0.93723232		-0.00031943		-0.00073736		-0.00009961
O		8.66962112		4.26922267		2.14516783		 0.00031943		 0.00073736		 0.00009961
O		8.66962112		1.50077659		2.14516783		 0.00031943		-0.00073736		 0.00009961
O		0.68837930		4.26922267		0.93723232		-0.00031943		 0.00073736		-0.00009961
O		5.83106015		1.31613693		0.07914020		 0.00009746		-0.00012919		-0.00042218
O		3.52694026		4.45386232		3.00325995		-0.00009746		 0.00012919		 0.00042218
O		3.52694026		1.31613693		3.00325995		-0.00009746		-0.00012919		 0.00042218
O		5.83106015		4.45386232		0.07914020		 0.00009746		 0.00012919		-0.00042218
