# total energy = -20633.4911035 eV

CRYSTAL
PRIMVEC
		10.11000015		0.00000000		-0.40439960
		0.00000000		5.76999957		0.00000000
		-0.18800413		0.00000000		4.70000202
PRIMECORD
   28 1
Si		8.34808143		2.88499979		3.77293455		 0.00002759		0.00000000		 0.00008278
Si		1.57391661		2.88499979		0.52266483		-0.00002759		0.00000000		-0.00008278
Si		3.09559456		0.00000000		4.01681985		 0.00033647		0.00000000		-0.00015443
Si		6.82640449		0.00000000		0.27877953		-0.00033647		0.00000000		 0.00015443
Mg		5.05500007		2.88499979		-0.20219980		0.00000000		0.00000000		0.00000000
Mg		-0.09400004		0.00000000		2.35000000		0.00000000		0.00000000		0.00000000
Mg		-0.09400004		2.88499979		2.35000000		0.00000000		0.00000000		0.00000000
Mg		4.96100003		0.00000000		2.14780020		0.00000000		0.00000000		0.00000000
Mg		2.41549031		1.45807871		2.24492774		 0.00003737		-0.00024262		-0.00036812
Mg		7.50650976		4.31192087		2.05067165		-0.00003737		 0.00024262		 0.00036812
Mg		7.50650976		1.45807871		2.05067165		-0.00003737		-0.00024262		 0.00036812
Mg		2.41549031		4.31192087		2.24492774		 0.00003737		 0.00024262		-0.00036812
O		3.14912024		2.88499979		0.86180178		 0.00059545		-0.00000000		-0.00016590
O		6.77287983		2.88499979		3.43379761		-0.00059545		-0.00000000		 0.00016590
O		1.51423003		2.88499979		3.57938673		 0.00024313		0.00000000		-0.00022030
O		8.40776903		2.88499979		0.71621266		-0.00024313		0.00000000		 0.00022030
O		8.35247572		0.00000000		0.76112582		 0.00009521		0.00000000		 0.00054030
O		1.56952435		0.00000000		3.53447356		-0.00009521		0.00000000		-0.00054030
O		3.32322111		0.00000000		0.95056470		-0.00011486		0.00000000		-0.00019595
O		6.59877896		0.00000000		3.34503469		 0.00011486		0.00000000		 0.00019595
O		0.81736517		1.50077702		1.04047602		-0.00032516		-0.00017175		-0.00000130
O		9.10463388		4.26922255		3.25512438		 0.00032516		 0.00017175		 0.00000130
O		9.10463388		1.50077702		3.25512438		 0.00032516		-0.00017175		 0.00000130
O		0.81736517		4.26922255		1.04047602		-0.00032516		 0.00017175		-0.00000130
O		5.95570386		1.31613716		0.79880962		 0.00034966		 0.00026237		 0.00015173
O		3.96629621		4.45386241		3.49678977		-0.00034966		-0.00026237		-0.00015173
O		3.96629621		1.31613716		3.49678977		-0.00034966		 0.00026237		-0.00015173
O		5.95570386		4.45386241		0.79880962		 0.00034966		-0.00026237		 0.00015173
