# total energy = -41270.4810504 eV

CRYSTAL
PRIMVEC
		5.69779836		0.00000000		0.45582273
		0.00000000		11.46199954		0.00000000
		0.66056998		0.00000000		8.25709907
PRIMECORD
   56 1
Mg		0.00000000		0.00000000		0.00000000		0.00000000		0.00000000		0.00000000
Mg		0.00000000		5.73099977		0.00000000		0.00000000		0.00000000		0.00000000
Mg		3.17918417		5.73099977		4.35646204		0.00000000		0.00000000		0.00000000
Mg		3.17918417		0.00000000		4.35646204		0.00000000		0.00000000		0.00000000
Mg		0.64061884		2.86550017		8.00773612		-0.00011918		-0.00000001		-0.00024671
Mg		0.01994885		8.59649994		0.24936410		 0.00011918		 0.00000001		 0.00024671
Mg		3.15923475		8.59649994		4.10709794		-0.00011918		 0.00000001		-0.00024670
Mg		3.19913303		2.86550017		4.60582671		 0.00011918		-0.00000001		 0.00024670
Mg		1.58959209		1.45452806		2.17823073		0.00000000		 0.00037753		-0.00000000
Mg		4.76877569		10.00747206		6.53469278		-0.00000000		-0.00037753		0.00000000
Mg		4.43849184		4.27647171		2.40614324		0.00000000		-0.00019087		-0.00000000
Mg		1.91987594		7.18552783		6.30678084		-0.00000000		 0.00019087		0.00000000
Mg		4.76877569		7.18552783		6.53469278		0.00000000		 0.00037754		0.00000000
Mg		1.58959209		4.27647171		2.17823073		-0.00000000		-0.00037754		-0.00000000
Mg		1.91987594		10.00747206		6.30678084		-0.00000000		-0.00019087		0.00000000
Mg		4.43849184		1.45452806		2.40614324		0.00000000		 0.00019087		-0.00000000
Si		0.40724012		1.37429423		5.09050211		-0.00009672		-0.00004251		 0.00024335
Si		0.25332815		10.08770589		3.16659810		 0.00009672		 0.00004251		-0.00024335
Si		0.40724012		4.35670611		5.09050211		-0.00009672		 0.00004249		 0.00024335
Si		0.25332815		7.10529400		3.16659810		 0.00009672		-0.00004249		-0.00024335
Si		2.92585603		7.10529400		1.18986394		-0.00009672		-0.00004249		 0.00024335
Si		3.43251175		4.35670611		7.52306015		 0.00009672		 0.00004249		-0.00024335
Si		2.92585603		10.08770589		1.18986394		-0.00009672		 0.00004251		 0.00024335
Si		3.43251175		1.37429423		7.52306015		 0.00009672		-0.00004251		-0.00024335
O		0.14413590		2.86550017		1.80169927		 0.00022461		-0.00000000		-0.00028564
O		0.51643180		8.59649994		6.45540094		-0.00022461		0.00000000		 0.00028564
O		3.32332007		8.59649994		6.15816074		 0.00022461		0.00000000		-0.00028564
O		3.03504771		2.86550017		2.55476277		-0.00022461		-0.00000000		 0.00028564
O		0.47276896		2.86550017		5.90960603		 0.00055140		-0.00000001		 0.00030563
O		0.18779988		8.59649994		2.34749418		-0.00055140		 0.00000001		-0.00030563
O		2.99138487		8.59649994		2.00896786		 0.00055140		 0.00000001		 0.00030563
O		3.36698405		2.86550017		6.70395622		-0.00055140		-0.00000001		-0.00030563
O		0.16943607		11.34508669		2.11794576		-0.00025144		 0.00033943		 0.00005449
O		0.49113220		0.11691286		6.13915388		 0.00025144		-0.00033943		-0.00005449
O		0.16943607		5.84791320		2.11794576		-0.00025144		-0.00033943		 0.00005450
O		0.49113220		5.61408692		6.13915388		 0.00025144		 0.00033943		-0.00005450
O		3.34862025		5.61408692		6.47440780		-0.00025143		 0.00033943		 0.00005450
O		3.00974810		5.84791320		2.23851571		 0.00025143		-0.00033943		-0.00005450
O		3.34862025		0.11691286		6.47440780		-0.00025143		-0.00033943		 0.00005449
O		3.00974810		11.34508669		2.23851571		 0.00025143		 0.00033943		-0.00005449
O		2.13800779		1.40524125		8.31868615		 0.00007194		 0.00023165		-0.00083598
O		4.22035999		10.05675773		0.39423793		-0.00007194		-0.00023165		 0.00083598
O		4.87181180		4.32575910		8.53739018		 0.00008333		 0.00005258		-0.00022196
O		1.48655597		7.13624102		0.17553391		-0.00008333		-0.00005258		 0.00022196
O		4.22035999		7.13624102		0.39423793		-0.00007194		 0.00023165		 0.00083598
O		2.13800779		4.32575910		8.31868615		 0.00007194		-0.00023165		-0.00083598
O		1.48655597		10.05675773		0.17553391		-0.00008332		 0.00005259		 0.00022196
O		4.87181180		1.40524125		8.53739018		 0.00008332		-0.00005259		-0.00022196
O		4.65662369		7.13624102		4.41804798		 0.00007194		 0.00023165		-0.00083598
O		1.70174408		4.32575910		4.29487610		-0.00007194		-0.00023165		 0.00083598
O		1.69262820		10.05675773		4.18092814		 0.00008332		 0.00005259		-0.00022195
O		4.66574015		1.40524125		4.53199595		-0.00008332		-0.00005259		 0.00022195
O		1.70174408		1.40524125		4.29487610		-0.00007194		 0.00023164		 0.00083597
O		4.65662369		10.05675773		4.41804798		 0.00007194		-0.00023164		-0.00083597
O		4.66574015		4.32575910		4.53199595		-0.00008333		 0.00005258		 0.00022196
O		1.69262820		7.13624102		4.18092814		 0.00008333		-0.00005258		-0.00022196
