# total energy = -41274.2277777 eV

CRYSTAL
PRIMVEC
		5.69780017		0.00000000		-0.22791178
		0.00000000		11.46199858		0.00000000
		-0.33028618		0.00000000		8.25709754
PRIMECORD
   56 1
Mg		0.00000000		0.00000000		0.00000000		0.00000000		0.00000000		0.00000000
Mg		0.00000000		5.73099986		0.00000000		0.00000000		0.00000000		0.00000000
Mg		2.68375814		5.73099986		4.01459402		0.00000000		0.00000000		0.00000000
Mg		2.68375814		0.00000000		4.01459402		0.00000000		0.00000000		0.00000000
Mg		-0.32030877		2.86550022		8.00773578		 0.00001362		-0.00000001		 0.00027027
Mg		-0.00997513		8.59650008		0.24936404		-0.00001362		 0.00000001		-0.00027027
Mg		2.69373270		8.59650008		3.76522998		 0.00001362		 0.00000001		 0.00027027
Mg		2.67378300		2.86550022		4.26395920		-0.00001362		-0.00000001		-0.00027027
Mg		1.34187907		1.45452798		2.00729673		-0.00000000		-0.00020277		-0.00000000
Mg		4.02563720		10.00747175		6.02189075		0.00000000		 0.00020277		0.00000000
Mg		4.19077915		4.27647188		1.89334084		0.00000000		-0.00012049		-0.00000000
Mg		1.17673712		7.18552784		6.13584721		-0.00000000		 0.00012049		0.00000000
Mg		4.02563720		7.18552784		6.02189075		0.00000000		-0.00020277		0.00000000
Mg		1.34187907		4.27647188		2.00729673		-0.00000000		 0.00020277		-0.00000000
Mg		1.17673712		10.00747175		6.13584721		-0.00000000		-0.00012048		0.00000000
Mg		4.19077915		1.45452798		1.89334084		0.00000000		 0.00012048		-0.00000000
Si		-0.20361974		1.37429411		5.09050207		 0.00011490		 0.00002131		 0.00020778
Si		-0.12666416		10.08770561		3.16659775		-0.00011490		-0.00002131		-0.00020778
Si		-0.20361974		4.35670575		5.09050207		 0.00011491		-0.00002132		 0.00020779
Si		-0.12666416		7.10529397		3.16659775		-0.00011491		 0.00002132		-0.00020779
Si		2.81042173		7.10529397		0.84799627		 0.00011490		 0.00002132		 0.00020778
Si		2.55709398		4.35670575		7.18119177		-0.00011490		-0.00002132		-0.00020778
Si		2.81042173		10.08770561		0.84799627		 0.00011491		-0.00002131		 0.00020779
Si		2.55709398		1.37429411		7.18119177		-0.00011491		 0.00002131		-0.00020779
O		-0.07206809		2.86550022		1.80169884		-0.00027753		-0.00000001		-0.00009399
O		-0.25821581		8.59650008		6.45540098		 0.00027753		 0.00000001		 0.00009399
O		2.61169005		8.59650008		5.81629286		-0.00027753		 0.00000001		-0.00009399
O		2.75582623		2.86550022		2.21289518		 0.00027753		-0.00000001		 0.00009399
O		-0.23638377		2.86550022		5.90960622		-0.00035789		-0.00000001		 0.00081082
O		-0.09390013		8.59650008		2.34749417		 0.00035789		 0.00000001		-0.00081082
O		2.77765770		8.59650008		1.66709985		-0.00035788		 0.00000001		 0.00081082
O		2.58985800		2.86550022		6.36208819		 0.00035788		-0.00000001		-0.00081082
O		-0.08471820		11.34508659		2.11794582		 0.00024170		 0.00013877		-0.00028880
O		-0.24556627		0.11691313		6.13915400		-0.00024170		-0.00013877		 0.00028880
O		-0.08471820		5.84791299		2.11794582		 0.00024169		-0.00013876		-0.00028879
O		-0.24556627		5.61408673		6.13915400		-0.00024169		 0.00013876		 0.00028879
O		2.59903994		5.61408673		6.13253984		 0.00024170		 0.00013876		-0.00028878
O		2.76847576		5.84791299		1.89664820		-0.00024170		-0.00013876		 0.00028878
O		2.59903994		0.11691313		6.13253984		 0.00024170		-0.00013877		-0.00028879
O		2.76847576		11.34508659		1.89664820		-0.00024170		 0.00013877		 0.00028879
O		1.15399327		1.40524080		8.14084588		-0.00034556		-0.00001922		 0.00005697
O		4.21352300		10.05675778		-0.11165784		 0.00034556		 0.00001922		-0.00005697
O		3.88779699		4.32575906		8.03149407		-0.00070469		-0.00024610		-0.00092641
O		1.47971871		7.13624066		-0.00230603		 0.00070469		 0.00024610		 0.00092641
O		4.21352300		7.13624066		-0.11165784		 0.00034557		-0.00001921		-0.00005696
O		1.15399327		4.32575906		8.14084588		-0.00034557		 0.00001921		 0.00005696
O		1.47971871		10.05675778		-0.00230603		 0.00070469		-0.00024610		 0.00092640
O		3.88779699		1.40524080		8.03149407		-0.00070469		 0.00024610		-0.00092640
O		4.16803474		7.13624066		3.89834008		-0.00034558		-0.00001921		 0.00005697
O		1.19948097		4.32575906		4.13084796		 0.00034558		 0.00001921		-0.00005697
O		1.20403886		10.05675778		4.01690005		-0.00070469		-0.00024610		-0.00092641
O		4.16347684		1.40524080		4.01228799		 0.00070469		 0.00024610		 0.00092641
O		1.19948097		1.40524080		4.13084796		 0.00034557		-0.00001922		-0.00005698
O		4.16803474		10.05675778		3.89834008		-0.00034557		 0.00001922		 0.00005698
O		4.16347684		4.32575906		4.01228799		 0.00070469		-0.00024609		 0.00092641
O		1.20403886		7.13624066		4.01690005		-0.00070469		 0.00024609		-0.00092641
