# total energy = -41274.2277777 eV

CRYSTAL
PRIMVEC
		5.69780017		0.00000000		0.22791178
		0.00000000		11.46199858		0.00000000
		0.33028618		0.00000000		8.25709754
PRIMECORD
   56 1
Mg		0.00000000		0.00000000		0.00000000		0.00000000		0.00000000		0.00000000
Mg		0.00000000		5.73099986		0.00000000		0.00000000		0.00000000		0.00000000
Mg		3.01404204		5.73099986		4.24250580		0.00000000		0.00000000		0.00000000
Mg		3.01404204		0.00000000		4.24250580		0.00000000		0.00000000		0.00000000
Mg		0.32030877		2.86550022		8.00773578		-0.00001362		-0.00000001		 0.00027027
Mg		0.00997513		8.59650008		0.24936404		 0.00001362		 0.00000001		-0.00027027
Mg		3.00406805		8.59650008		3.99314176		-0.00001363		 0.00000001		 0.00027027
Mg		3.02401717		2.86550022		4.49187098		 0.00001363		-0.00000001		-0.00027027
Mg		1.50702102		1.45452798		2.12125318		-0.00000000		 0.00012051		0.00000000
Mg		4.52106306		10.00747175		6.36375898		0.00000000		-0.00012051		-0.00000000
Mg		4.35592111		4.27647188		2.23520907		-0.00000000		 0.00020276		-0.00000001
Mg		1.67216297		7.18552784		6.24980309		0.00000000		-0.00020276		 0.00000001
Mg		4.52106306		7.18552784		6.36375898		0.00000000		 0.00012051		0.00000000
Mg		1.50702102		4.27647188		2.12125318		-0.00000000		-0.00012051		-0.00000000
Mg		1.67216297		10.00747175		6.24980309		0.00000000		 0.00020277		 0.00000001
Mg		4.35592111		1.45452798		2.23520907		-0.00000000		-0.00020277		-0.00000001
Si		0.20361974		1.37429411		5.09050207		-0.00011491		 0.00002131		 0.00020779
Si		0.12666416		10.08770561		3.16659775		 0.00011491		-0.00002131		-0.00020779
Si		0.20361974		4.35670575		5.09050207		-0.00011491		-0.00002133		 0.00020779
Si		0.12666416		7.10529397		3.16659775		 0.00011491		 0.00002133		-0.00020779
Si		2.88737788		7.10529397		1.07590805		-0.00011492		 0.00002132		 0.00020779
Si		3.14070620		4.35670575		7.40910412		 0.00011492		-0.00002132		-0.00020779
Si		2.88737788		10.08770561		1.07590805		-0.00011492		-0.00002131		 0.00020779
Si		3.14070620		1.37429411		7.40910412		 0.00011492		 0.00002131		-0.00020779
O		0.07206809		2.86550022		1.80169884		 0.00027753		-0.00000001		-0.00009399
O		0.25821581		8.59650008		6.45540098		-0.00027753		 0.00000001		 0.00009399
O		3.08611013		8.59650008		6.04420521		 0.00027753		 0.00000001		-0.00009398
O		2.94197395		2.86550022		2.44080696		-0.00027753		-0.00000001		 0.00009398
O		0.23638377		2.86550022		5.90960622		 0.00035787		-0.00000002		 0.00081084
O		0.09390013		8.59650008		2.34749417		-0.00035787		 0.00000002		-0.00081084
O		2.92014191		8.59650008		1.89501220		 0.00035788		 0.00000002		 0.00081085
O		3.10794217		2.86550022		6.58999997		-0.00035788		-0.00000002		-0.00081085
O		0.08471820		11.34508659		2.11794582		-0.00024170		 0.00013876		-0.00028881
O		0.24556627		0.11691313		6.13915400		 0.00024170		-0.00013876		 0.00028881
O		0.08471820		5.84791299		2.11794582		-0.00024170		-0.00013876		-0.00028880
O		0.24556627		5.61408673		6.13915400		 0.00024170		 0.00013876		 0.00028880
O		3.09876024		5.61408673		6.36045219		-0.00024170		 0.00013875		-0.00028880
O		2.92932384		5.84791299		2.12455998		 0.00024170		-0.00013875		 0.00028880
O		3.09876024		0.11691313		6.36045219		-0.00024170		-0.00013877		-0.00028881
O		2.92932384		11.34508659		2.12455998		 0.00024170		 0.00013877		 0.00028881
O		1.81000318		1.40524080		8.25940585		 0.00070468		 0.00024610		-0.00092640
O		4.21808090		10.05675778		0.22560575		-0.00070468		-0.00024610		 0.00092640
O		4.54380690		4.32575906		8.36875766		 0.00034556		 0.00001921		 0.00005697
O		1.48427717		7.13624066		0.11625394		-0.00034556		-0.00001921		-0.00005697
O		4.21808090		7.13624066		0.22560575		-0.00070467		 0.00024611		 0.00092640
O		1.81000318		4.32575906		8.25940585		 0.00070467		-0.00024611		-0.00092640
O		1.48427717		10.05675778		0.11625394		-0.00034555		 0.00001922		-0.00005698
O		4.54380690		1.40524080		8.36875766		 0.00034555		-0.00001922		 0.00005698
O		4.49376074		7.13624066		4.24481183		 0.00070467		 0.00024611		-0.00092641
O		1.53432276		4.32575906		4.24019977		-0.00070467		-0.00024611		 0.00092641
O		1.52976487		10.05675778		4.12625186		 0.00034555		 0.00001922		 0.00005698
O		4.49831921		1.40524080		4.35875974		-0.00034555		-0.00001922		-0.00005698
O		1.53432276		1.40524080		4.24019977		-0.00070468		 0.00024610		 0.00092640
O		4.49376074		10.05675778		4.24481183		 0.00070468		-0.00024610		-0.00092640
O		4.49831921		4.32575906		4.35875974		-0.00034556		 0.00001922		-0.00005697
O		1.52976487		7.13624066		4.12625186		 0.00034556		-0.00001922		 0.00005697
