# total energy = -41256.122833 eV

CRYSTAL
PRIMVEC
		5.69780212		0.00000000		-0.91165088
		0.00000000		11.46200276		0.00000000
		-1.32113816		0.00000000		8.25710194
PRIMECORD
   56 1
Mg		0.00000000		0.00000000		0.00000000		0.00000000		0.00000000		0.00000000
Mg		0.00000000		5.73100022		0.00000000		0.00000000		0.00000000		0.00000000
Mg		2.18833198		5.73100022		3.67272611		0.00000000		0.00000000		0.00000000
Mg		2.18833198		0.00000000		3.67272611		0.00000000		0.00000000		0.00000000
Mg		-1.28123789		2.86549982		8.00773622		 0.00093407		0.00000000		 0.00041257
Mg		-0.03989796		8.59650005		0.24936399		-0.00093407		-0.00000000		-0.00041257
Mg		2.22822995		8.59650005		3.42336212		 0.00093407		-0.00000000		 0.00041257
Mg		2.14843402		2.86549982		3.92209125		-0.00093407		0.00000000		-0.00041257
Mg		1.09416628		1.45452778		1.83636277		 0.00000001		 0.00025056		-0.00000000
Mg		3.28249826		10.00747209		5.50908888		-0.00000001		-0.00025056		0.00000000
Mg		3.94306619		4.27647187		1.38053906		 0.00000001		-0.00049663		-0.00000000
Mg		0.43359778		7.18552800		5.96491316		-0.00000001		 0.00049663		0.00000000
Mg		3.28249826		7.18552800		5.50908888		-0.00000001		 0.00025055		0.00000000
Mg		1.09416628		4.27647187		1.83636277		 0.00000001		-0.00025055		-0.00000000
Mg		0.43359778		10.00747209		5.96491316		-0.00000001		-0.00049663		0.00000000
Mg		3.94306619		1.45452778		1.38053906		 0.00000001		 0.00049663		-0.00000000
Si		-0.81448009		1.37429389		5.09050188		 0.00027055		 0.00027946		-0.00063180
Si		-0.50665576		10.08770598		3.16659776		-0.00027055		-0.00027946		 0.00063180
Si		-0.81448009		4.35670575		5.09050188		 0.00027055		-0.00027946		-0.00063180
Si		-0.50665576		7.10529412		3.16659776		-0.00027055		 0.00027946		 0.00063180
Si		2.69498774		7.10529412		0.50612778		 0.00027056		 0.00027946		-0.00063180
Si		1.68167623		4.35670575		6.83932387		-0.00027056		-0.00027946		 0.00063180
Si		2.69498774		10.08770598		0.50612778		 0.00027055		-0.00027946		-0.00063180
Si		1.68167623		1.37429389		6.83932387		-0.00027055		 0.00027946		 0.00063180
O		-0.28827177		2.86549982		1.80169902		-0.00076636		-0.00000000		-0.00004240
O		-1.03286408		8.59650005		6.45540119		 0.00076636		0.00000000		 0.00004240
O		1.90006021		8.59650005		5.47442513		-0.00076637		0.00000000		-0.00004239
O		2.47660376		2.86549982		1.87102709		 0.00076637		-0.00000000		 0.00004239
O		-0.94553680		2.86549982		5.90960627		-0.00056509		0.00000000		-0.00088102
O		-0.37559905		8.59650005		2.34749394		 0.00056509		-0.00000000		 0.00088102
O		2.56393104		8.59650005		1.32523216		-0.00056508		0.00000000		-0.00088102
O		1.81273293		2.86549982		6.02022005		 0.00056508		-0.00000000		 0.00088102
O		-0.33887128		11.34508726		2.11794622		-0.00000704		-0.00070668		-0.00013352
O		-0.98226515		0.11691319		6.13915399		 0.00000704		 0.00070668		 0.00013352
O		-0.33887128		5.84791284		2.11794622		-0.00000704		 0.00070668		-0.00013352
O		-0.98226515		5.61408703		6.13915399		 0.00000704		-0.00070668		 0.00013352
O		1.84946128		5.61408703		5.79067175		-0.00000705		-0.00070668		-0.00013352
O		2.52720326		5.84791284		1.55477989		 0.00000705		 0.00070668		 0.00013352
O		1.84946128		0.11691319		5.79067175		-0.00000705		 0.00070668		-0.00013352
O		2.52720326		11.34508726		1.55477989		 0.00000705		-0.00070668		 0.00013352
O		0.16997776		1.40524101		7.96300624		 0.00057629		-0.00027831		 0.00055409
O		4.20668621		10.05675828		-0.61755402		-0.00057629		 0.00027831		-0.00055409
O		2.90378211		4.32575921		7.52559777		-0.00010465		-0.00058255		-0.00041415
O		1.47288186		7.13624124		-0.18014613		 0.00010465		 0.00058255		 0.00041415
O		4.20668621		7.13624124		-0.61755402		-0.00057629		-0.00027832		-0.00055409
O		0.16997776		4.32575921		7.96300624		 0.00057629		 0.00027832		 0.00055409
O		1.47288186		10.05675828		-0.18014613		 0.00010465		-0.00058255		 0.00041415
O		2.90378211		1.40524101		7.52559777		-0.00010465		 0.00058255		-0.00041415
O		3.67944617		7.13624124		3.37863213		 0.00057630		-0.00027831		 0.00055409
O		0.69721780		4.32575921		3.96682009		-0.00057630		 0.00027831		-0.00055409
O		0.71545013		10.05675828		3.85287224		-0.00010465		-0.00058255		-0.00041415
O		3.66121384		1.40524101		3.49257998		 0.00010465		 0.00058255		 0.00041415
O		0.69721780		1.40524101		3.96682009		-0.00057630		-0.00027830		-0.00055409
O		3.67944617		10.05675828		3.37863213		 0.00057630		 0.00027830		 0.00055409
O		3.66121384		4.32575921		3.49257998		 0.00010464		-0.00058255		 0.00041415
O		0.71545013		7.13624124		3.85287224		-0.00010464		 0.00058255		-0.00041415
