# total energy = -9214.94434422 eV	

CRYSTAL	
PRIMVEC	
		5.32600180		0.00000000		-0.85216266	
		-2.66299820		4.61245291		0.42607863	
		-1.16607843		0.00000000		7.28800235	
PRIMCOORD
   18 1	
Mg		1.23660107		0.00000000		3.03329314		-0.00030607		-0.00000000		-0.00006323	
Mg		-1.41415010		1.53041113		3.45741277		-0.00011490		 0.00015947		 0.00021675	
Mg		1.24884972		3.08204016		3.03133305		-0.00011490		-0.00015947		 0.00021675	
Si		-0.08629016		3.07496789		0.53931215		-0.00005043		-0.00016227		-0.00001714	
Si		2.57670966		1.53748394		0.11323190		-0.00005043		 0.00016227		-0.00001714	
H		2.25148806		0.00000000		4.83800678		 0.00018953		-0.00000000		-0.00002242	
H		-2.40609967		2.68905914		5.58322071		-0.00010384		-0.00026233		 0.00014911	
H		0.25690015		1.92339214		5.15714100		-0.00010384		 0.00026233		 0.00014911	
H		-0.22971785		0.00000000		1.43573586		-0.00004503		-0.00000000		-0.00024175	
O		-0.33944597		3.07496789		2.12153718		 0.00022834		-0.00053751		-0.00000110	
O		2.32355385		1.53748394		1.69545693		 0.00022834		 0.00053751		-0.00000110	
O		1.54353087		0.00000000		6.79765081		-0.00017582		0.00000000		 0.00039606	
O		-2.50689199		2.33851285		7.44571859		 0.00013969		-0.00022721		 0.00002347	
O		0.15610783		2.27393790		7.01963888		 0.00013969		 0.00022721		 0.00002347	
O		2.85080883		0.00000000		3.71950978		 0.00024464		0.00000000		-0.00084275	
O		-2.45388715		3.06266800		4.56826090		-0.00020063		 0.00005873		-0.00040485	
O		0.20911321		1.54978383		4.14218065		-0.00020063		-0.00005873		-0.00040485	
O		-0.35448804		0.00000000		2.21555172		 0.00029629		0.00000000		 0.00084159	
