# total energy = -9215.07988315 eV	

CRYSTAL	
PRIMVEC	
		5.32599843		0.00000000		-0.42607881	
		-2.66300188		4.61244934		0.21304207	
		-0.58304058		0.00000000		7.28800196	
PRIMCOORD
   18 1	
Mg		1.50188384		0.00000000		3.17466672		-0.00036381		0.00000000		 0.00019347	
Mg		-1.14886704		1.53041074		3.38672675		 0.00063429		-0.00030550		-0.00010481	
Mg		1.51413378		3.08204020		3.17368681		 0.00063429		 0.00030550		-0.00010481	
Si		-0.04314485		3.07496818		0.53931174		 0.00011842		 0.00001380		-0.00003530	
Si		2.61985489		1.53748382		0.32627180		 0.00011842		-0.00001380		-0.00003530	
H		2.67827276		0.00000000		5.08641118		 0.00032897		0.00000000		 0.00022814	
H		-1.97931384		2.68905870		5.45901815		-0.00049236		-0.00021393		 0.00012854	
H		0.68368591		1.92339223		5.24597768		-0.00049236		 0.00021393		 0.00012854	
H		-0.11485881		0.00000000		1.43573624		 0.00005250		0.00000000		-0.00060888	
O		-0.16972304		3.07496818		2.12153691		 0.00010403		 0.00011087		 0.00017136	
O		2.49327671		1.53748382		1.90849697		 0.00010403		-0.00011087		 0.00017136	
O		2.12190718		0.00000000		7.01367283		-0.00027047		-0.00000000		-0.00011778	
O		-1.92851672		2.33851305		7.33770697		 0.00009742		 0.00001080		 0.00007071	
O		0.73448303		2.27393789		7.12466704		 0.00009742		-0.00001080		 0.00007071	
O		3.19363603		0.00000000		4.00242705		-0.00092645		-0.00000000		-0.00026460	
O		-2.11105979		3.06266803		4.42680304		-0.00016099		-0.00036355		-0.00034910	
O		0.55194103		1.54978398		4.21376310		-0.00016099		 0.00036355		-0.00034910	
O		-0.17724387		0.00000000		2.21555208		 0.00057762		0.00000000		 0.00080684	
