# total energy = -41271.0685431 eV	

CRYSTAL	
PRIMVEC	
		5.69829968		0.00000000		0.00000000	
		0.00000000		11.43799751		0.91503866	
		0.00000000		0.66052980		8.25659691	
PRIMCOORD
   56 1	
Mg		0.00000000		0.00000000		0.00000000		0.00000000		0.00000000		0.00000000	
Mg		0.00000000		5.71899990		0.45751990		0.00000000		0.00000000		0.00000000	
Mg		2.84914984		6.04926366		4.58581950		0.00000000		0.00000000		0.00000000	
Mg		2.84914984		0.33026376		4.12829960		0.00000000		0.00000000		0.00000000	
Mg		0.00000000		3.50027802		8.23848772		0.00000000		-0.00051465		 0.00001431	
Mg		0.00000000		8.59824930		0.93315185		0.00000000		 0.00051465		-0.00001431	
Mg		2.84914984		8.88901359		4.56770802		0.00000000		-0.00051466		 0.00001432	
Mg		2.84914984		3.20951373		4.60393268		0.00000000		 0.00051466		-0.00001432	
Mg		1.42457492		1.62462114		2.18090910		 0.00019890		 0.00003940		-0.00021340	
Mg		4.27372476		10.47390618		6.99073047		-0.00019890		-0.00003940		 0.00021340	
Mg		4.27372476		4.42464252		2.40491097		 0.00019891		-0.00003940		 0.00021339	
Mg		1.42457492		7.67388480		6.76672860		-0.00019891		 0.00003940		-0.00021339	
Mg		4.27372476		7.67388480		6.76672860		 0.00019891		 0.00003940		-0.00021339	
Mg		1.42457492		4.42464252		2.40491097		-0.00019891		-0.00003940		 0.00021339	
Mg		1.42457492		10.47390618		6.99073047		 0.00019890		-0.00003940		 0.00021340	
Mg		4.27372476		1.62462114		2.18090910		-0.00019890		 0.00003940		-0.00021340	
Si		0.00000000		1.77768602		5.20229290		0.00000000		 0.00023082		-0.00022031	
Si		0.00000000		10.32084130		3.96934667		0.00000000		-0.00023082		 0.00022031	
Si		0.00000000		4.75614053		5.44056844		0.00000000		 0.00030970		-0.00058393	
Si		0.00000000		7.34238564		3.73107056		0.00000000		-0.00030970		 0.00058393	
Si		2.84914984		7.16642158		1.53151263		0.00000000		 0.00023086		-0.00022036	
Si		2.84914984		4.93210574		7.64012750		0.00000000		-0.00023086		 0.00022036	
Si		2.84914984		10.14487667		1.76978874		0.00000000		 0.00030966		-0.00058396	
Si		2.84914984		1.95365065		7.40185082		0.00000000		-0.00030966		 0.00058396	
O		0.00000000		3.00256972		2.01713997		0.00000000		 0.00064866		 0.00034627	
O		0.00000000		9.09595646		7.15450074		0.00000000		-0.00064866		-0.00034627	
O		2.84914984		9.05183338		6.60295946		-0.00000000		 0.00064867		 0.00034627	
O		2.84914984		3.04669394		2.56868067		-0.00000000		-0.00064867		-0.00034627	
O		0.00000000		3.33270185		6.14378876		0.00000000		 0.00051256		-0.00002391	
O		0.00000000		8.76582546		3.02785194		0.00000000		-0.00051256		 0.00002391	
O		2.84914984		8.72143742		2.47300907		0.00000000		 0.00051255		-0.00002390	
O		2.84914984		3.37708990		6.69863163		0.00000000		-0.00051255		 0.00002390	
O		0.00000000		11.49258210		3.01792778		0.00000000		-0.00009860		 0.00024521	
O		0.00000000		0.60594522		6.15371178		0.00000000		 0.00009860		-0.00024521	
O		0.00000000		6.00234272		2.57870911		0.00000000		 0.00086393		-0.00045881	
O		0.00000000		6.09618460		6.59293159		0.00000000		-0.00086393		 0.00045881	
O		2.84914984		6.10384653		6.68870748		0.00000000		-0.00009856		 0.00024519	
O		2.84914984		5.99468079		2.48293209		0.00000000		 0.00009856		-0.00024519	
O		2.84914984		0.61360716		6.24948880		0.00000000		 0.00086392		-0.00045882	
O		2.84914984		11.48492016		2.92215076		0.00000000		-0.00086392		 0.00045882	
O		1.49010480		2.05672890		8.30676759		-0.00023332		 0.00012779		 0.00045675	
O		4.20819375		10.04179842		0.86487197		 0.00023332		-0.00012779		-0.00045675	
O		4.20819375		4.97341898		8.54010328		 0.00018329		-0.00023522		-0.00001910	
O		1.49010480		7.12510834		0.63153686		-0.00018329		 0.00023522		 0.00001910	
O		4.20819375		7.12510834		0.63153686		 0.00018329		 0.00023522		 0.00001910	
O		1.49010480		4.97341898		8.54010328		-0.00018329		-0.00023522		-0.00001910	
O		1.49010480		10.04179842		0.86487197		-0.00023332		-0.00012779		-0.00045675	
O		4.20819375		2.05672890		8.30676759		 0.00023332		 0.00012779		 0.00045675	
O		4.33925464		7.44546447		4.63598790		-0.00023334		 0.00012782		 0.00045677	
O		1.35904504		4.65306285		4.53565167		 0.00023334		-0.00012782		-0.00045677	
O		1.35904504		10.36215455		4.86932301		 0.00018332		-0.00023524		-0.00001909	
O		4.33925464		1.73637277		4.30231655		-0.00018332		 0.00023524		 0.00001909	
O		1.35904504		1.73637277		4.30231655		 0.00018332		 0.00023524		 0.00001909	
O		4.33925464		10.36215455		4.86932301		-0.00018332		-0.00023524		-0.00001909	
O		4.33925464		4.65306285		4.53565167		-0.00023334		-0.00012782		-0.00045677	
O		1.35904504		7.44546447		4.63598790		 0.00023334		 0.00012782		 0.00045677	
