# total energy = -41261.3385267 eV	

CRYSTAL	
PRIMVEC	
		5.69829968		0.00000000		0.00000000	
		0.00000000		11.43799751		-1.83007732	
		0.00000000		-1.32105391		8.25659691	
PRIMCOORD
   56 1	
Mg		0.00000000		0.00000000		0.00000000		0.00000000		0.00000000		0.00000000	
Mg		0.00000000		5.71899990		-0.91503980		0.00000000		0.00000000		0.00000000	
Mg		2.84914984		5.05847180		3.21325980		0.00000000		0.00000000		0.00000000	
Mg		2.84914984		-0.66052809		4.12829960		0.00000000		0.00000000		0.00000000	
Mg		0.00000000		1.57794295		7.55220730		0.00000000		-0.00033046		 0.00026956	
Mg		0.00000000		8.53899952		-1.12568714		0.00000000		 0.00033046		-0.00026956	
Mg		2.84914984		7.95747037		2.50886790		0.00000000		-0.00033045		 0.00026962	
Mg		2.84914984		2.15947209		3.91765283		0.00000000		 0.00033045		-0.00026962	
Mg		1.42457492		1.12922521		1.83063177		 0.00035756		 0.00002174		-0.00042918	
Mg		4.27372476		8.98771839		4.59588896		-0.00035756		-0.00002174		 0.00042918	
Mg		4.27372476		3.92924659		1.38262803		 0.00035752		-0.00002171		 0.00042934	
Mg		1.42457492		6.18769644		5.04389156		-0.00035752		 0.00002171		-0.00042934	
Mg		4.27372476		6.18769644		5.04389156		 0.00035752		 0.00002171		-0.00042934	
Mg		1.42457492		3.92924659		1.38262803		-0.00035752		-0.00002171		 0.00042934	
Mg		1.42457492		8.98771839		4.59588896		 0.00035756		-0.00002174		 0.00042918	
Mg		4.27372476		1.12922521		1.83063177		-0.00035756		 0.00002174		-0.00042918	
Si		0.00000000		0.55544518		4.87342750		-0.00000000		 0.00066267		 0.00061542	
Si		0.00000000		9.56149842		1.55309266		-0.00000000		-0.00066267		-0.00061542	
Si		0.00000000		3.53389970		4.39687471		0.00000000		 0.00021873		-0.00021532	
Si		0.00000000		6.58304277		2.02964602		0.00000000		-0.00021873		 0.00021532	
Si		2.84914984		6.93497260		-0.16991190		-0.00000000		 0.00066215		 0.00061639	
Si		2.84914984		3.18197100		6.59643263		-0.00000000		-0.00066215		-0.00061639	
Si		2.84914984		9.91342769		-0.64646469		0.00000000		 0.00022014		-0.00021357	
Si		2.84914984		0.20351591		7.07298542		0.00000000		-0.00022014		 0.00021357	
O		0.00000000		2.57335898		1.33086011		0.00000000		 0.00032486		-0.00010490	
O		0.00000000		7.54358349		5.09566062		0.00000000		-0.00032486		 0.00010490	
O		2.84914984		7.63183078		4.54411991		0.00000000		 0.00032482		-0.00010470	
O		2.84914984		2.48511283		1.88240082		0.00000000		-0.00032482		 0.00010470	
O		0.00000000		1.91309471		5.45750891		0.00000000		 0.00071782		 0.00065101	
O		0.00000000		8.20384775		0.96901182		0.00000000		-0.00071782		-0.00065101	
O		2.84914984		8.29262270		0.41416895		0.00000000		 0.00071783		 0.00065084	
O		2.84914984		1.82431976		6.01235178		0.00000000		-0.00071783		-0.00065084	
O		0.00000000		10.98569327		0.30025880		-0.00000000		-0.00022722		-0.00045114	
O		0.00000000		-0.86875023		6.12626079		-0.00000000		 0.00022722		 0.00045114	
O		0.00000000		5.49545389		1.17869785		0.00000000		-0.00017848		-0.00010222	
O		0.00000000		4.62148971		5.24782288		0.00000000		 0.00017848		 0.00010222	
O		2.84914984		4.60616585		5.34359876		-0.00000000		-0.00022756		-0.00045055	
O		2.84914984		5.51077776		1.08292083		-0.00000000		 0.00022756		 0.00045055	
O		2.84914984		-0.88407410		6.22203782		0.00000000		-0.00017700		-0.00010095	
O		2.84914984		11.00101714		0.20448291		0.00000000		 0.00017700		 0.00010095	
O		1.49010480		0.09000692		7.97049041		 0.00032892		 0.00030115		 0.00017473	
O		4.20819375		10.02693668		-1.54397082		-0.00032892		-0.00030115		-0.00017473	
O		4.20819375		3.00669700		7.50382075		-0.00045249		 0.00065204		 0.00003494	
O		1.49010480		7.11024660		-1.07730002		 0.00045249		-0.00065204		-0.00003494	
O		4.20819375		7.11024660		-1.07730002		-0.00045249		-0.00065204		-0.00003494	
O		1.49010480		3.00669700		7.50382075		 0.00045249		 0.00065204		 0.00003494	
O		1.49010480		10.02693668		-1.54397082		 0.00032892		-0.00030115		-0.00017473	
O		4.20819375		0.09000692		7.97049041		-0.00032892		 0.00030115		 0.00017473	
O		4.33925464		6.46953491		2.92715102		 0.00032935		 0.00030115		 0.00017448	
O		1.35904504		3.64740869		3.49936857		-0.00032935		-0.00030115		-0.00017448	
O		1.35904504		9.38622442		2.46048079		-0.00045284		 0.00065202		 0.00003468	
O		4.33925464		0.73071918		3.96603994		 0.00045284		-0.00065202		-0.00003468	
O		1.35904504		0.73071918		3.96603994		-0.00045284		-0.00065202		-0.00003468	
O		4.33925464		9.38622442		2.46048079		 0.00045284		 0.00065202		 0.00003468	
O		4.33925464		3.64740869		3.49936857		 0.00032935		-0.00030115		-0.00017448	
O		1.35904504		6.46953491		2.92715102		-0.00032935		 0.00030115		 0.00017448	
