# total energy = -41271.0685431 eV	

CRYSTAL	
PRIMVEC	
		5.69829968		0.00000000		0.00000000	
		0.00000000		11.43799751		-0.91503866	
		0.00000000		-0.66052980		8.25659691	
PRIMCOORD
   56 1	
Mg		0.00000000		0.00000000		0.00000000		0.00000000		0.00000000		0.00000000	
Mg		0.00000000		5.71899990		-0.45751990		0.00000000		0.00000000		0.00000000	
Mg		2.84914984		5.38873556		3.67077970		0.00000000		0.00000000		0.00000000	
Mg		2.84914984		-0.33026376		4.12829960		0.00000000		0.00000000		0.00000000	
Mg		0.00000000		2.21872188		7.78096782		0.00000000		 0.00051464		 0.00001432	
Mg		0.00000000		8.55874925		-0.43940786		0.00000000		-0.00051464		-0.00001432	
Mg		2.84914984		8.26798553		3.19514775		0.00000000		 0.00051464		 0.00001432	
Mg		2.84914984		2.50948559		4.14641278		0.00000000		-0.00051464		-0.00001432	
Mg		1.42457492		1.29435681		1.94739107		-0.00019889		 0.00003940		 0.00021340	
Mg		4.27372476		9.48311432		5.39416889		 0.00019889		-0.00003940		-0.00021340	
Mg		4.27372476		4.09437876		1.72338863		-0.00019888		-0.00003940		-0.00021341	
Mg		1.42457492		6.68309237		5.61817076		 0.00019888		 0.00003940		 0.00021341	
Mg		4.27372476		6.68309237		5.61817076		-0.00019888		 0.00003940		 0.00021341	
Mg		1.42457492		4.09437876		1.72338863		 0.00019888		-0.00003940		-0.00021341	
Mg		1.42457492		9.48311432		5.39416889		-0.00019889		-0.00003940		-0.00021340	
Mg		4.27372476		1.29435681		1.94739107		 0.00019889		 0.00003940		 0.00021340	
Si		0.00000000		0.96285879		4.98304854		0.00000000		-0.00030971		-0.00058393	
Si		0.00000000		9.81461234		2.35851085		0.00000000		 0.00030971		 0.00058393	
Si		0.00000000		3.94131388		4.74477300		0.00000000		-0.00023082		-0.00022029	
Si		0.00000000		6.83615782		2.59678696		0.00000000		 0.00023082		 0.00022029	
Si		2.84914984		7.01212188		0.39722904		0.00000000		-0.00030971		-0.00058393	
Si		2.84914984		3.76534868		6.94433035		0.00000000		 0.00030971		 0.00058393	
Si		2.84914984		9.99057754		0.15895293		-0.00000000		-0.00023084		-0.00022030	
Si		2.84914984		0.78689416		7.18260760		-0.00000000		 0.00023084		 0.00022030	
O		0.00000000		2.71642960		1.55962006		-0.00000000		-0.00064866		 0.00034626	
O		0.00000000		8.06104152		5.78194047		-0.00000000		 0.00064866		-0.00034626	
O		2.84914984		8.10516460		5.23039976		0.00000000		-0.00064866		 0.00034626	
O		2.84914984		2.67230596		2.11116077		0.00000000		 0.00064866		-0.00034626	
O		0.00000000		2.38629804		5.68626886		0.00000000		-0.00051251		-0.00002390	
O		0.00000000		8.39117366		1.65529167		0.00000000		 0.00051251		 0.00002390	
O		2.84914984		8.43556170		1.10044880		0.00000000		-0.00051251		-0.00002389	
O		2.84914984		2.34191000		6.24111173		0.00000000		 0.00051251		 0.00002389	
O		0.00000000		11.15465640		1.20614884		-0.00000000		-0.00086402		-0.00045878	
O		0.00000000		-0.37718470		6.13541169		-0.00000000		 0.00086402		 0.00045878	
O		0.00000000		5.66441645		1.64536808		0.00000000		 0.00009857		 0.00024523	
O		0.00000000		5.11305467		5.69619188		0.00000000		-0.00009857		-0.00024523	
O		2.84914984		5.10539274		5.79196890		0.00000000		-0.00086401		-0.00045878	
O		2.84914984		5.67207896		1.54959106		0.00000000		 0.00086401		 0.00045878	
O		2.84914984		-0.38484721		6.23118758		0.00000000		 0.00009856		 0.00024521	
O		2.84914984		11.16231833		1.11037182		0.00000000		-0.00009856		-0.00024521	
O		1.49010480		0.74558092		8.08258338		-0.00018330		 0.00023520		-0.00001909	
O		4.20819375		10.03189021		-0.74102285		 0.00018330		-0.00023520		 0.00001909	
O		4.20819375		3.66227099		7.84924769		 0.00023332		-0.00012781		 0.00045675	
O		1.49010480		7.11520070		-0.50768773		-0.00023332		 0.00012781		-0.00045675	
O		4.20819375		7.11520070		-0.50768773		 0.00023332		 0.00012781		-0.00045675	
O		1.49010480		3.66227099		7.84924769		-0.00023332		-0.00012781		 0.00045675	
O		1.49010480		10.03189021		-0.74102285		-0.00018330		-0.00023520		 0.00001909	
O		4.20819375		0.74558092		8.08258338		 0.00018330		 0.00023520		-0.00001909	
O		4.33925464		6.79484458		3.49676274		-0.00018331		 0.00023520		-0.00001909	
O		1.35904504		3.98262655		3.84479665		 0.00018331		-0.00023520		 0.00001909	
O		1.35904504		9.71153465		3.26342763		 0.00023332		-0.00012781		 0.00045677	
O		4.33925464		1.06593704		4.07813177		-0.00023332		 0.00012781		-0.00045677	
O		1.35904504		1.06593704		4.07813177		 0.00023332		 0.00012781		-0.00045677	
O		4.33925464		9.71153465		3.26342763		-0.00023332		-0.00012781		 0.00045677	
O		4.33925464		3.98262655		3.84479665		-0.00018331		-0.00023520		 0.00001909	
O		1.35904504		6.79484458		3.49676274		 0.00018331		 0.00023520		-0.00001909	
