# total energy = -24715.0157018 eV	

CRYSTAL	
PRIMVEC	
		9.68100001		0.00000000		0.00000000	
		0.00000000		8.30204805		0.00000000	
		1.61441324		0.00000000		4.94515161	
PRIMCOORD
   40 1	
Si		2.35750744		3.40384057		0.99397538		 0.00031163		 0.00016758		 0.00031249	
Si		8.93790581		4.89821038		3.95117236		-0.00031163		-0.00016758		-0.00031249	
Si		3.29020015		7.55486556		1.47859946		-0.00031163		 0.00016758		-0.00031249	
Si		8.00521310		0.74718539		3.46654828		 0.00031163		-0.00016758		 0.00031249	
Si		8.13069919		3.40384057		1.47859946		 0.00017845		-0.00003650		-0.00046297	
Si		3.16471309		4.89821038		3.46654828		-0.00017845		 0.00003650		 0.00046297	
Si		7.19800744		7.55486556		0.99397538		-0.00017845		-0.00003650		 0.00046297	
Si		4.09740580		0.74718539		3.95117236		 0.00017845		 0.00003650		-0.00046297	
O		4.03384133		3.48686095		0.49451516		-0.00032018		 0.00016717		-0.00019771	
O		7.26157192		4.81519000		4.45063161		 0.00032018		-0.00016717		 0.00019771	
O		1.61386530		7.63788594		1.97805871		 0.00032018		 0.00016717		 0.00019771	
O		9.68154698		0.66416404		2.96708806		-0.00032018		-0.00016717		-0.00019771	
O		8.60171275		2.07551346		0.78627824		-0.00046061		-0.00089891		 0.00033960	
O		2.69369856		6.22653845		4.15886854		 0.00046061		 0.00089891		-0.00033960	
O		6.72699291		6.22653845		1.68629467		 0.00046061		-0.00089891		-0.00033960	
O		4.56842034		2.07551346		3.25885211		-0.00046061		 0.00089891		 0.00033960	
O		2.98584210		4.06800461		4.69788919		 0.00055286		 0.00059542		-0.00005458	
O		8.30957115		4.23404634		0.24725661		-0.00055286		-0.00059542		 0.00005458	
O		4.27627680		8.21902960		2.71983145		-0.00055286		 0.00059542		 0.00005458	
O		7.01913548		0.08302038		2.22531629		 0.00055286		-0.00059542		-0.00005458	
O		9.11677680		4.06800461		2.71983145		-0.00037317		-0.00002351		 0.00045797	
O		2.17863644		4.23404634		2.22531629		 0.00037317		 0.00002351		-0.00045797	
O		7.82634210		8.21902960		4.69788919		 0.00037317		-0.00002351		-0.00045797	
O		3.46907115		0.08302038		0.24725661		-0.00037317		 0.00002351		 0.00045797	
O		1.88649291		2.07551346		1.68629467		-0.00025423		-0.00088563		-0.00043439	
O		9.40892034		6.22653845		3.25885211		 0.00025423		 0.00088563		 0.00043439	
O		3.76121275		6.22653845		0.78627824		 0.00025423		-0.00088563		 0.00043439	
O		7.53419856		2.07551346		4.15886757		-0.00025423		 0.00088563		-0.00043439	
O		6.45436530		3.48686095		1.97805871		 0.00064401		 0.00068072		 0.00031738	
O		4.84104795		4.81519000		2.96708806		-0.00064401		-0.00068072		-0.00031738	
O		8.87434133		7.63788594		0.49451516		-0.00064401		 0.00068072		-0.00031738	
O		2.42107095		0.66416404		4.45063161		 0.00064401		-0.00068072		 0.00031738	
Mg		0.40360283		0.75548685		1.23628694		-0.00006656		-0.00045137		 0.00007958	
Mg		1.21081042		7.54656410		3.70885984		 0.00006656		 0.00045137		-0.00007958	
Mg		5.24410283		4.90651184		1.23628694		 0.00006656		-0.00045137		-0.00007958	
Mg		6.05131042		3.39553911		3.70885984		-0.00006656		 0.00045137		 0.00007958	
Mg		0.32288265		5.72841518		0.98902935		-0.00003263		 0.00031909		 0.00014693	
Mg		1.29152963		2.57363577		3.95611742		 0.00003263		-0.00031909		-0.00014693	
Mg		5.32482398		1.57739019		1.48354355		 0.00003263		 0.00031909		-0.00014693	
Mg		5.97058927		6.72466076		3.46160322		-0.00003263		-0.00031909		 0.00014693	
