# total energy = -24715.9744605 eV	

CRYSTAL	
PRIMVEC	
		9.68100001		0.00000000		0.00000000	
		0.00000000		9.39442304		0.00000000	
		1.61441324		0.00000000		4.94515161	
PRIMCOORD
   40 1	
Si		2.35750744		3.85171364		0.99397538		 0.00052823		 0.00078578		 0.00008138	
Si		8.93790581		5.54271134		3.95117236		-0.00052823		-0.00078578		-0.00008138	
Si		3.29020015		8.54892710		1.47859946		-0.00052823		 0.00078578		-0.00008138	
Si		8.00521310		0.84549788		3.46654828		 0.00052823		-0.00078578		 0.00008138	
Si		8.13069919		3.85171364		1.47859946		-0.00030608		-0.00001981		-0.00028443	
Si		3.16471309		5.54271134		3.46654828		 0.00030608		 0.00001981		 0.00028443	
Si		7.19800744		8.54892710		0.99397538		 0.00030608		-0.00001981		 0.00028443	
Si		4.09740580		0.84549788		3.95117236		-0.00030608		 0.00001981		-0.00028443	
O		4.03384133		3.94565903		0.49451516		-0.00028174		 0.00000879		 0.00024727	
O		7.26157192		5.44876691		4.45063161		 0.00028174		-0.00000879		-0.00024727	
O		1.61386530		8.64287056		1.97805871		 0.00028174		 0.00000879		-0.00024727	
O		9.68154698		0.75155442		2.96708806		-0.00028174		-0.00000879		 0.00024727	
O		8.60171275		2.34860576		0.78627824		-0.00003732		-0.00005996		 0.00013249	
O		2.69369856		7.04581922		4.15886854		 0.00003732		 0.00005996		-0.00013249	
O		6.72699291		7.04581922		1.68629467		 0.00003732		-0.00005996		-0.00013249	
O		4.56842034		2.34860576		3.25885211		-0.00003732		 0.00005996		 0.00013249	
O		2.98584210		4.60326903		4.69788919		 0.00038699		 0.00023122		 0.00007077	
O		8.30957115		4.79115691		0.24725661		-0.00038699		-0.00023122		-0.00007077	
O		4.27627680		9.30048056		2.71983145		-0.00038699		 0.00023122		-0.00007077	
O		7.01913548		0.09394442		2.22531629		 0.00038699		-0.00023122		 0.00007077	
O		9.11677680		4.60326903		2.71983145		-0.00018601		 0.00016624		-0.00050743	
O		2.17863644		4.79115691		2.22531629		 0.00018601		-0.00016624		 0.00050743	
O		7.82634210		9.30048056		4.69788919		 0.00018601		 0.00016624		 0.00050743	
O		3.46907115		0.09394442		0.24725661		-0.00018601		-0.00016624		-0.00050743	
O		1.88649291		2.34860576		1.68629467		 0.00058121		 0.00037511		-0.00030290	
O		9.40892034		7.04581922		3.25885211		-0.00058121		-0.00037511		 0.00030290	
O		3.76121275		7.04581922		0.78627824		-0.00058121		 0.00037511		 0.00030290	
O		7.53419856		2.34860576		4.15886757		 0.00058121		-0.00037511		-0.00030290	
O		6.45436530		3.94565903		1.97805871		 0.00044239		-0.00053247		-0.00065832	
O		4.84104795		5.44876691		2.96708806		-0.00044239		 0.00053247		 0.00065832	
O		8.87434133		8.64287056		0.49451516		-0.00044239		-0.00053247		 0.00065832	
O		2.42107095		0.75155442		4.45063161		 0.00044239		 0.00053247		-0.00065832	
Mg		0.40360283		0.85489329		1.23628694		-0.00037309		 0.00024725		 0.00006452	
Mg		1.21081042		8.53953169		3.70885984		 0.00037309		-0.00024725		-0.00006452	
Mg		5.24410283		5.55210578		1.23628694		 0.00037309		 0.00024725		-0.00006452	
Mg		6.05131042		3.84232017		3.70885984		-0.00037309		-0.00024725		 0.00006452	
Mg		0.32288265		6.48215267		0.98902935		 0.00009728		 0.00004742		-0.00091116	
Mg		1.29152963		2.91227231		3.95611742		-0.00009728		-0.00004742		 0.00091116	
Mg		5.32482398		1.78494115		1.48354355		-0.00009728		 0.00004742		 0.00091116	
Mg		5.97058927		7.60948479		3.46160322		 0.00009728		-0.00004742		-0.00091116	
