# total energy = -22469.4512409 eV

CRYSTAL
PRIMVEC
		9.73970023		0.00000000		-0.38958762
		0.00000000		8.91740210		0.00000000
		-1.63738311		0.00000000		5.10769371
PRIMECORD
   40 1
Mg		-0.40934578		8.09771240		1.27692391		-0.00000016		-0.00026712		 0.00000007
Mg		-1.22803734		0.81968775		3.83077272		 0.00000016		 0.00026712		-0.00000007
Mg		4.46050531		3.63901330		1.08213010		-0.00000013		-0.00020964		 0.00000005
Mg		3.64181278		5.27838783		3.63597891		 0.00000013		 0.00020964		-0.00000005
Ca		-0.40934578		2.68841776		1.27692391		 0.00000001		 0.00026753		 0.00000011
Ca		-1.22803734		6.22898337		3.83077272		-0.00000001		-0.00026753		-0.00000011
Ca		4.46050531		7.14711783		1.08213010		0.00000000		 0.00017418		 0.00000010
Ca		3.64181278		1.77028232		3.63597891		-0.00000000		-0.00017418		-0.00000010
Si		2.41185519		0.83101336		1.06000526		 0.00053591		 0.00091227		 0.00024672
Si		5.69046290		8.08638777		3.65810473		-0.00053591		-0.00091227		-0.00024672
Si		6.50915349		0.83101336		1.10425593		-0.00053246		 0.00090941		-0.00024515
Si		1.59316363		8.08638777		3.61385406		 0.00053246		-0.00090941		 0.00024515
Si		7.28170531		5.28971246		0.86521145		-0.00047217		 0.00031151		-0.00013117
Si		0.82061279		3.62768769		3.85289854		 0.00047217		-0.00031151		 0.00013117
Si		1.63930434		5.28971246		1.29904974		 0.00047407		 0.00030932		 0.00013210
Si		6.46301375		3.62768769		3.41906025		-0.00047407		-0.00030932		-0.00013210
O		0.89304637		0.77492241		0.67956468		 0.00004922		-0.00044118		-0.00039454
O		7.20927172		8.14247774		4.03854531		-0.00004922		 0.00044118		 0.00039454
O		8.02796328		0.77492241		1.48469553		-0.00005132		-0.00044077		 0.00039381
O		0.07435482		8.14247774		3.23341348		 0.00005132		 0.00044077		-0.00039381
O		5.76289551		5.23362151		0.48477087		 0.00070962		-0.00035112		-0.00018782
O		2.33942160		3.68377767		4.23333912		-0.00070962		 0.00035112		 0.00018782
O		3.15811316		5.23362151		1.67949031		-0.00071052		-0.00035082		 0.00018742
O		4.94420493		3.68377767		3.03861967		 0.00071052		 0.00035082		-0.00018742
O		2.99515270		2.23104415		1.48240390		 0.00026097		 0.00019461		-0.00000137
O		5.10716539		6.68635600		3.23570609		-0.00026097		-0.00019461		 0.00000137
O		5.92585598		2.23104415		0.68185729		-0.00026203		 0.00019690		 0.00000081
O		2.17646212		6.68635600		4.03625270		 0.00026203		-0.00019690		-0.00000081
O		7.86500281		6.68974520		1.28761009		 0.00060644		 0.00078125		 0.00015003
O		0.23731528		2.22765593		3.43049990		-0.00060644		-0.00078125		-0.00015003
O		1.05600586		6.68974520		0.87665110		-0.00060699		 0.00078266		-0.00015041
O		7.04631126		2.22765593		3.84145889		 0.00060699		-0.00078266		 0.00015041
O		1.78610542		0.15551923		4.94771500		-0.00072367		 0.00005887		-0.00013865
O		6.31621170		8.76188093		-0.22960599		 0.00072367		-0.00005887		 0.00013865
O		5.49752112		0.15551923		2.32424281		 0.00072385		 0.00005938		 0.00013885
O		2.60479698		8.76188093		2.39386717		-0.00072385		-0.00005938		-0.00013885
O		6.65595554		4.61422028		4.75292119		-0.00057803		 0.00005612		-0.00009016
O		1.44636158		4.30318085		-0.03481218		 0.00057803		-0.00005612		 0.00009016
O		0.62767100		4.61422028		2.51903662		 0.00057828		 0.00005675		 0.00008997
O		7.47464709		4.30318085		2.19907336		-0.00057828		-0.00005675		-0.00008997
