# total energy = -22464.548535 eV

CRYSTAL
PRIMVEC
		9.73970164		0.00000000		-1.16876184
		0.00000000		8.91740419		0.00000000
		-2.04140204		0.00000000		5.22252958
PRIMECORD
   40 1
Mg		-0.51035100		8.09771314		1.30563190		-0.00000041		 0.00071914		 0.00000052
Mg		-1.53105398		0.81968811		3.91689571		 0.00000041		-0.00071914		-0.00000052
Mg		4.35949884		3.63901301		0.72125000		-0.00000034		 0.00068364		 0.00000040
Mg		3.33879586		5.27838824		3.33251381		 0.00000034		-0.00068364		-0.00000040
Ca		-0.51035100		2.68841808		1.30563190		 0.00000026		-0.00053719		 0.00000140
Ca		-1.53105398		6.22898317		3.91689571		-0.00000026		 0.00053719		-0.00000140
Ca		4.35949884		7.14711821		0.72125000		 0.00000037		-0.00049103		 0.00000158
Ca		3.33879586		1.77028205		3.33251381		-0.00000037		 0.00049103		-0.00000158
Si		2.31918763		0.83101326		0.86334955		-0.00005515		-0.00027917		 0.00012670
Si		5.37910707		8.08638798		3.19041328		 0.00005515		 0.00027917		-0.00012670
Si		6.39980907		0.83101326		0.57915046		 0.00007412		-0.00029407		-0.00012173
Si		1.29848563		8.08638798		3.47461433		-0.00007412		 0.00029407		 0.00012173
Si		7.18903943		5.28971339		0.27896764		 0.00032808		 0.00002994		 0.00024908
Si		0.50925723		3.62768785		3.77479518		-0.00032808		-0.00002994		-0.00024908
Si		1.52995923		5.28971339		1.16353236		-0.00031311		 0.00001722		-0.00024520
Si		6.16833645		3.62768785		2.89023243		 0.00031311		-0.00001722		 0.00024520
O		0.83573069		0.77492211		0.60582858		-0.00049808		 0.00024217		-0.00042488
O		6.86256401		8.14247815		3.44793523		 0.00049808		-0.00024217		 0.00042488
O		7.88326601		0.77492211		0.83667143		 0.00048402		 0.00024397		 0.00042054
O		-0.18497131		8.14247815		3.21709336		-0.00048402		-0.00024397		-0.00042054
O		5.70558249		5.23362224		0.02144667		-0.00074357		 0.00020399		-0.00050354
O		1.99271417		3.68377802		4.03231713		 0.00074357		-0.00020399		 0.00050354
O		3.01341617		5.23362224		1.42105333		 0.00073234		 0.00020549		 0.00050016
O		4.68487951		3.68377802		2.63271146		-0.00073234		-0.00020549		-0.00050016
O		2.86677087		2.23104369		1.23765743		 0.00044158		 0.00024551		-0.00000921
O		4.83152481		6.68635559		2.81610736		-0.00044158		-0.00024551		 0.00000921
O		5.85222681		2.23104369		0.20484257		-0.00044680		 0.00025878		 0.00000786
O		1.84606789		6.68635559		3.84892026		 0.00044680		-0.00025878		-0.00000786
O		7.73662071		6.68974480		0.65327455		 0.00029645		-0.00004446		-0.00005603
O		-0.03832601		2.22765644		3.40048926		-0.00029645		 0.00004446		 0.00005603
O		0.98237697		6.68974480		0.78922545		-0.00030076		-0.00003334		 0.00005488
O		6.71591773		2.22765644		3.26453836		 0.00030076		 0.00003334		-0.00005488
O		1.38392899		0.15551904		4.78874035		-0.00024884		-0.00003234		-0.00021054
O		6.31436571		8.76188122		-0.73497556		 0.00024884		 0.00003234		 0.00021054
O		5.29366273		0.15551904		1.87628727		 0.00024887		-0.00003121		 0.00021014
O		2.40463197		8.76188122		2.17747556		-0.00024887		 0.00003121		-0.00021014
O		6.25377883		4.61422016		4.20435845		-0.00028940		-0.00002340		-0.00022007
O		1.44451587		4.30318109		-0.15059366		 0.00028940		 0.00002340		 0.00022007
O		0.42381289		4.61422016		2.46066917		 0.00028956		-0.00002214		 0.00021950
O		7.27448181		4.30318109		1.59309366		-0.00028956		 0.00002214		-0.00021950
