# total energy = -4022.71701542 eV	

CRYSTAL	
PRIMVEC	
		3.94517949		-0.63122648		0.00000000	
		-0.63122648		3.94517949		0.00000000	
		0.00000000		0.00000000		3.94517949	
PRIMCOORD
   5 1	
Ca		0.00000000		0.00000000		0.00000000		0.00000000		0.00000000		0.00000000	
Mg		1.65697491		1.65697491		1.97258895		0.00000000		0.00000000		0.00000000	
O		1.65697491		1.65697491		0.00000000		0.00000000		0.00000000		0.00000000	
O		1.97258895		-0.31561404		1.97258895		0.00000000		0.00000000		0.00000000	
O		-0.31561404		1.97258895		1.97258895		0.00000000		0.00000000		0.00000000	
