# total energy = -49447.4851143 eV	

CRYSTAL	
PRIMVEC	
		5.08939982		0.00000000		0.00000000	
		0.00000000		13.96800031		0.00000000	
		0.00000000		0.00000000		9.13037819	
PRIMCOORD
   70 1	
Si		2.54469991		0.00000000		0.00000000		0.00000000		0.00000000		0.00000000	
Si		0.00000000		6.98399965		4.56518960		0.00000000		0.00000000		0.00000000	
Si		2.47349870		5.25923157		0.00000000		 0.00065477		-0.00044662		0.00000000	
Si		2.61590112		8.70876773		0.00000000		-0.00065477		 0.00044662		0.00000000	
Si		0.07120121		12.24323172		4.56518960		-0.00065477		-0.00044662		0.00000000	
Si		5.01819861		1.72476910		4.56518960		 0.00065477		 0.00044662		0.00000000	
Mg		0.86219522		2.42358797		0.00000000		 0.00059452		 0.00025269		-0.00000000	
Mg		4.22720460		11.54441183		0.00000000		-0.00059452		-0.00025269		-0.00000000	
Mg		1.68250469		9.40758762		4.56518960		-0.00059452		 0.00025269		-0.00000000	
Mg		3.40689513		4.56041168		4.56518960		 0.00059452		-0.00025269		-0.00000000	
Mg		0.80570289		4.51808975		2.95641709		-0.00028644		 0.00025576		-0.00045427	
Mg		4.28369694		9.44991056		6.17396263		 0.00028644		-0.00025576		 0.00045427	
Mg		4.28369694		9.44991056		2.95641709		 0.00028644		-0.00025576		-0.00045427	
Mg		0.80570289		4.51808975		6.17396263		-0.00028644		 0.00025576		 0.00045427	
Mg		1.73899703		11.50208838		1.60877303		 0.00028644		 0.00025576		 0.00045427	
Mg		3.35040280		2.46591091		7.52160567		-0.00028644		-0.00025576		-0.00045427	
Mg		3.35040280		2.46591091		1.60877303		-0.00028644		-0.00025576		 0.00045427	
Mg		1.73899703		11.50208838		7.52160567		 0.00028644		 0.00025576		-0.00045427	
Mg		2.54469991		6.98399965		2.93331681		0.00000000		0.00000000		-0.00047433	
Mg		2.54469991		6.98399965		6.19706291		0.00000000		0.00000000		 0.00047433	
Mg		0.00000000		0.00000000		1.63187279		0.00000000		0.00000000		 0.00047433	
Mg		0.00000000		0.00000000		7.49850692		0.00000000		0.00000000		-0.00047433	
Mg		2.54469991		0.00000000		3.12158593		0.00000000		0.00000000		-0.00040598	
Mg		2.54469991		0.00000000		6.00879379		0.00000000		0.00000000		 0.00040598	
Mg		0.00000000		6.98399965		1.44360419		0.00000000		0.00000000		 0.00040598	
Mg		0.00000000		6.98399965		7.68677451		0.00000000		0.00000000		-0.00040598	
O		1.69075002		5.77129797		1.42543503		 0.00009213		 0.00014917		-0.00018865	
O		3.39864980		8.19670184		7.70494469		-0.00009213		-0.00014917		 0.00018865	
O		3.39864980		8.19670184		1.42543503		-0.00009213		-0.00014917		-0.00018865	
O		1.69075002		5.77129797		7.70494469		 0.00009213		 0.00014917		 0.00018865	
O		0.85394989		12.75529863		3.13975508		-0.00009213		 0.00014917		 0.00018865	
O		4.23544892		1.21270219		5.99062463		 0.00009213		-0.00014917		-0.00018865	
O		4.23544892		1.21270219		3.13975508		 0.00009213		-0.00014917		 0.00018865	
O		0.85394989		12.75529863		5.99062463		-0.00009213		 0.00014917		-0.00018865	
O		2.50953216		3.62092475		0.00000000		-0.00082638		-0.00022182		0.00000000	
O		2.57986715		10.34707454		0.00000000		 0.00082638		 0.00022182		0.00000000	
O		0.03516775		10.60492440		4.56518960		 0.00082638		-0.00022182		0.00000000	
O		5.05423207		3.36307591		4.56518960		-0.00082638		 0.00022182		0.00000000	
O		4.02780191		5.78973585		0.00000000		 0.00023628		-0.00065384		0.00000000	
O		1.06159791		8.17826396		0.00000000		-0.00023628		 0.00065384		0.00000000	
O		3.60629782		12.77373549		4.56518960		-0.00023628		-0.00065384		0.00000000	
O		1.48310200		1.19426380		4.56518960		 0.00023628		 0.00065384		0.00000000	
O		1.81386210		1.02064198		1.32061782		-0.00014852		 0.00025563		-0.00038956	
O		3.27553773		12.94735833		7.80976189		 0.00014852		-0.00025563		 0.00038956	
O		3.27553773		12.94735833		1.32061782		 0.00014852		-0.00025563		-0.00038956	
O		1.81386210		1.02064198		7.80976189		-0.00014852		 0.00025563		 0.00038956	
O		0.73083781		8.00464163		3.24457178		 0.00014852		 0.00025563		 0.00038956	
O		4.35856201		5.96335868		5.88580794		-0.00014852		-0.00025563		-0.00038956	
O		4.35856201		5.96335868		3.24457178		-0.00014852		-0.00025563		 0.00038956	
O		0.73083781		8.00464163		5.88580794		 0.00014852		 0.00025563		-0.00038956	
O		5.00058979		3.51784100		1.45355600		 0.00010002		-0.00052398		-0.00001744	
O		0.08881003		10.45015881		7.67682270		-0.00010002		 0.00052398		 0.00001744	
O		0.08881003		10.45015881		1.45355600		-0.00010002		 0.00052398		-0.00001744	
O		5.00058979		3.51784100		7.67682270		 0.00010002		-0.00052398		 0.00001744	
O		2.63350994		10.50184065		3.11163310		-0.00010002		-0.00052398		 0.00001744	
O		2.45588988		3.46615865		6.01874560		 0.00010002		 0.00052398		-0.00001744	
O		2.45588988		3.46615865		3.11163310		 0.00010002		 0.00052398		 0.00001744	
O		2.63350994		10.50184065		6.01874560		-0.00010002		-0.00052398		-0.00001744	
O		0.99589376		12.86159431		0.00000000		 0.00017083		 0.00030936		-0.00000000	
O		4.09350606		1.10640498		0.00000000		-0.00017083		-0.00030936		-0.00000000	
O		1.54880615		5.87759466		4.56518960		-0.00017083		 0.00030936		0.00000000	
O		3.54059367		8.09040463		4.56518960		 0.00017083		-0.00030936		0.00000000	
H		4.69802498		4.22671703		0.99064608		-0.00078066		 0.00015985		-0.00057046	
H		0.39137485		9.74128277		8.13973262		 0.00078066		-0.00015985		 0.00057046	
H		0.39137485		9.74128277		0.99064608		 0.00078066		-0.00015985		-0.00057046	
H		4.69802498		4.22671703		8.13973262		-0.00078066		 0.00015985		 0.00057046	
H		2.93607476		11.21071668		3.57454404		 0.00078066		 0.00015985		 0.00057046	
H		2.15332506		2.75728312		5.55583568		-0.00078066		-0.00015985		-0.00057046	
H		2.15332506		2.75728312		3.57454404		-0.00078066		-0.00015985		 0.00057046	
H		2.93607476		11.21071668		5.55583568		 0.00078066		 0.00015985		-0.00057046	
