# total energy = -49448.0388059 eV	

CRYSTAL	
PRIMVEC	
		5.08939982		0.00000000		0.00000000	
		0.00000000		13.96800031		0.00000000	
		0.00000000		0.00000000		8.91298957	
PRIMCOORD
   70 1	
Si		2.54469991		0.00000000		0.00000000		0.00000000		0.00000000		0.00000000	
Si		0.00000000		6.98399965		4.45649478		0.00000000		0.00000000		0.00000000	
Si		2.47349870		5.25923157		0.00000000		-0.00038892		 0.00013027		0.00000000	
Si		2.61590112		8.70876773		0.00000000		 0.00038892		-0.00013027		0.00000000	
Si		0.07120121		12.24323172		4.45649478		 0.00038892		 0.00013027		-0.00000000	
Si		5.01819861		1.72476910		4.45649478		-0.00038892		-0.00013027		-0.00000000	
Mg		0.86219522		2.42358797		0.00000000		-0.00070655		 0.00040400		0.00000000	
Mg		4.22720460		11.54441183		0.00000000		 0.00070655		-0.00040400		0.00000000	
Mg		1.68250469		9.40758762		4.45649478		 0.00070655		 0.00040400		0.00000000	
Mg		3.40689513		4.56041168		4.45649478		-0.00070655		-0.00040400		0.00000000	
Mg		0.80570289		4.51808975		2.88602611		-0.00004798		-0.00044805		 0.00009238	
Mg		4.28369694		9.44991056		6.02696397		 0.00004798		 0.00044805		-0.00009238	
Mg		4.28369694		9.44991056		2.88602611		 0.00004798		 0.00044805		 0.00009238	
Mg		0.80570289		4.51808975		6.02696397		-0.00004798		-0.00044805		-0.00009238	
Mg		1.73899703		11.50208838		1.57046918		 0.00004798		-0.00044805		-0.00009238	
Mg		3.35040280		2.46591091		7.34251987		-0.00004798		 0.00044805		 0.00009238	
Mg		3.35040280		2.46591091		1.57046918		-0.00004798		 0.00044805		-0.00009238	
Mg		1.73899703		11.50208838		7.34251987		 0.00004798		-0.00044805		 0.00009238	
Mg		2.54469991		6.98399965		2.86347600		0.00000000		0.00000000		-0.00013853	
Mg		2.54469991		6.98399965		6.04951255		0.00000000		0.00000000		 0.00013853	
Mg		0.00000000		0.00000000		1.59301879		0.00000000		0.00000000		 0.00013853	
Mg		0.00000000		0.00000000		7.31997078		0.00000000		0.00000000		-0.00013853	
Mg		2.54469991		0.00000000		3.04726186		0.00000000		0.00000000		 0.00076809	
Mg		2.54469991		0.00000000		5.86572771		0.00000000		0.00000000		-0.00076809	
Mg		0.00000000		6.98399965		1.40923293		0.00000000		0.00000000		-0.00076809	
Mg		0.00000000		6.98399965		7.50375664		0.00000000		0.00000000		 0.00076809	
O		1.69075002		5.77129797		1.39149586		-0.00036702		 0.00022701		-0.00037924	
O		3.39864980		8.19670184		7.52149371		 0.00036702		-0.00022701		 0.00037924	
O		3.39864980		8.19670184		1.39149586		 0.00036702		-0.00022701		-0.00037924	
O		1.69075002		5.77129797		7.52149371		-0.00036702		 0.00022701		 0.00037924	
O		0.85394989		12.75529863		3.06499892		 0.00036702		 0.00022701		 0.00037924	
O		4.23544892		1.21270219		5.84799064		-0.00036702		-0.00022701		-0.00037924	
O		4.23544892		1.21270219		3.06499892		-0.00036702		-0.00022701		 0.00037924	
O		0.85394989		12.75529863		5.84799064		 0.00036702		 0.00022701		-0.00037924	
O		2.50953216		3.62092475		0.00000000		 0.00059189		 0.00020033		-0.00000000	
O		2.57986715		10.34707454		0.00000000		-0.00059189		-0.00020033		-0.00000000	
O		0.03516775		10.60492440		4.45649478		-0.00059189		 0.00020033		0.00000000	
O		5.05423207		3.36307591		4.45649478		 0.00059189		-0.00020033		0.00000000	
O		4.02780191		5.78973585		0.00000000		-0.00080912		-0.00011125		0.00000000	
O		1.06159791		8.17826396		0.00000000		 0.00080912		 0.00011125		0.00000000	
O		3.60629782		12.77373549		4.45649478		 0.00080912		-0.00011125		0.00000000	
O		1.48310200		1.19426380		4.45649478		-0.00080912		 0.00011125		0.00000000	
O		1.81386210		1.02064198		1.28917500		 0.00011808		-0.00038009		 0.00004002	
O		3.27553773		12.94735833		7.62381456		-0.00011808		 0.00038009		-0.00004002	
O		3.27553773		12.94735833		1.28917500		-0.00011808		 0.00038009		 0.00004002	
O		1.81386210		1.02064198		7.62381456		 0.00011808		-0.00038009		-0.00004002	
O		0.73083781		8.00464163		3.16731978		-0.00011808		-0.00038009		-0.00004002	
O		4.35856201		5.96335868		5.74566877		 0.00011808		 0.00038009		 0.00004002	
O		4.35856201		5.96335868		3.16731978		 0.00011808		 0.00038009		-0.00004002	
O		0.73083781		8.00464163		5.74566877		-0.00011808		-0.00038009		 0.00004002	
O		5.00058979		3.51784100		1.41894808		-0.00021999		-0.00065067		 0.00048607	
O		0.08881003		10.45015881		7.49404098		 0.00021999		 0.00065067		-0.00048607	
O		0.08881003		10.45015881		1.41894808		 0.00021999		 0.00065067		 0.00048607	
O		5.00058979		3.51784100		7.49404098		-0.00021999		-0.00065067		-0.00048607	
O		2.63350994		10.50184065		3.03754670		 0.00021999		-0.00065067		-0.00048607	
O		2.45588988		3.46615865		5.87544286		-0.00021999		 0.00065067		 0.00048607	
O		2.45588988		3.46615865		3.03754670		-0.00021999		 0.00065067		-0.00048607	
O		2.63350994		10.50184065		5.87544286		 0.00021999		-0.00065067		 0.00048607	
O		0.99589376		12.86159431		0.00000000		 0.00061306		 0.00048873		0.00000000	
O		4.09350606		1.10640498		0.00000000		-0.00061306		-0.00048873		0.00000000	
O		1.54880615		5.87759466		4.45649478		-0.00061306		 0.00048873		0.00000000	
O		3.54059367		8.09040463		4.45649478		 0.00061306		-0.00048873		0.00000000	
H		4.69802498		4.22671703		0.96705874		-0.00067342		 0.00079563		 0.00004258	
H		0.39137485		9.74128277		7.94592980		 0.00067342		-0.00079563		-0.00004258	
H		0.39137485		9.74128277		0.96705874		 0.00067342		-0.00079563		 0.00004258	
H		4.69802498		4.22671703		7.94592980		-0.00067342		 0.00079563		-0.00004258	
H		2.93607476		11.21071668		3.48943502		 0.00067342		 0.00079563		-0.00004258	
H		2.15332506		2.75728312		5.42355404		-0.00067342		-0.00079563		 0.00004258	
H		2.15332506		2.75728312		3.48943502		-0.00067342		-0.00079563		-0.00004258	
H		2.93607476		11.21071668		5.42355404		 0.00067342		 0.00079563		 0.00004258	
