# total energy = -49446.4577074 eV	

CRYSTAL	
PRIMVEC	
		5.08939982		0.00000000		0.00000000	
		0.00000000		13.96800031		0.00000000	
		0.00000000		0.00000000		9.34777190	
PRIMCOORD
   70 1	
Si		2.54469991		0.00000000		0.00000000		0.00000000		0.00000000		0.00000000	
Si		0.00000000		6.98399965		4.67388493		0.00000000		0.00000000		0.00000000	
Si		2.47349870		5.25923157		0.00000000		 0.00037714		-0.00015531		-0.00000000	
Si		2.61590112		8.70876773		0.00000000		-0.00037714		 0.00015531		-0.00000000	
Si		0.07120121		12.24323172		4.67388493		-0.00037714		-0.00015531		0.00000000	
Si		5.01819861		1.72476910		4.67388493		 0.00037714		 0.00015531		0.00000000	
Mg		0.86219522		2.42358797		0.00000000		 0.00082929		 0.00081659		0.00000000	
Mg		4.22720460		11.54441183		0.00000000		-0.00082929		-0.00081659		0.00000000	
Mg		1.68250469		9.40758762		4.67388493		-0.00082929		 0.00081659		-0.00000000	
Mg		3.40689513		4.56041168		4.67388493		 0.00082929		-0.00081659		-0.00000000	
Mg		0.80570289		4.51808975		3.02680807		-0.00034892		 0.00018777		-0.00038830	
Mg		4.28369694		9.44991056		6.32096180		 0.00034892		-0.00018777		 0.00038830	
Mg		4.28369694		9.44991056		3.02680807		 0.00034892		-0.00018777		-0.00038830	
Mg		0.80570289		4.51808975		6.32096180		-0.00034892		 0.00018777		 0.00038830	
Mg		1.73899703		11.50208838		1.64707687		 0.00034892		 0.00018777		 0.00038830	
Mg		3.35040280		2.46591091		7.70069198		-0.00034892		-0.00018777		-0.00038830	
Mg		3.35040280		2.46591091		1.64707687		-0.00034892		-0.00018777		 0.00038830	
Mg		1.73899703		11.50208838		7.70069198		 0.00034892		 0.00018777		-0.00038830	
Mg		2.54469991		6.98399965		3.00315814		0.00000000		0.00000000		 0.00029023	
Mg		2.54469991		6.98399965		6.34461173		0.00000000		0.00000000		-0.00029023	
Mg		0.00000000		0.00000000		1.67072680		0.00000000		0.00000000		-0.00029023	
Mg		0.00000000		0.00000000		7.67704256		0.00000000		0.00000000		 0.00029023	
Mg		2.54469991		0.00000000		3.19590898		0.00000000		0.00000000		 0.00019568	
Mg		2.54469991		0.00000000		6.15186089		0.00000000		0.00000000		-0.00019568	
Mg		0.00000000		6.98399965		1.47797596		0.00000000		0.00000000		-0.00019568	
Mg		0.00000000		6.98399965		7.86979289		0.00000000		0.00000000		 0.00019568	
O		1.69075002		5.77129797		1.45937420		 0.00033445		 0.00001563		-0.00033380	
O		3.39864980		8.19670184		7.88839567		-0.00033445		-0.00001563		 0.00033380	
O		3.39864980		8.19670184		1.45937420		-0.00033445		-0.00001563		-0.00033380	
O		1.69075002		5.77129797		7.88839567		 0.00033445		 0.00001563		 0.00033380	
O		0.85394989		12.75529863		3.21451073		-0.00033445		 0.00001563		 0.00033380	
O		4.23544892		1.21270219		6.13325863		 0.00033445		-0.00001563		-0.00033380	
O		4.23544892		1.21270219		3.21451073		 0.00033445		-0.00001563		 0.00033380	
O		0.85394989		12.75529863		6.13325863		-0.00033445		 0.00001563		-0.00033380	
O		2.50953216		3.62092475		0.00000000		-0.00072413		-0.00012732		-0.00000000	
O		2.57986715		10.34707454		0.00000000		 0.00072413		 0.00012732		-0.00000000	
O		0.03516775		10.60492440		4.67388493		 0.00072413		-0.00012732		-0.00000000	
O		5.05423207		3.36307591		4.67388493		-0.00072413		 0.00012732		-0.00000000	
O		4.02780191		5.78973585		0.00000000		 0.00042722		-0.00035993		0.00000000	
O		1.06159791		8.17826396		0.00000000		-0.00042722		 0.00035993		0.00000000	
O		3.60629782		12.77373549		4.67388493		-0.00042722		-0.00035993		-0.00000000	
O		1.48310200		1.19426380		4.67388493		 0.00042722		 0.00035993		-0.00000000	
O		1.81386210		1.02064198		1.35206115		 0.00028615		-0.00002363		-0.00018393	
O		3.27553773		12.94735833		7.99570770		-0.00028615		 0.00002363		 0.00018393	
O		3.27553773		12.94735833		1.35206115		-0.00028615		 0.00002363		-0.00018393	
O		1.81386210		1.02064198		7.99570770		 0.00028615		-0.00002363		 0.00018393	
O		0.73083781		8.00464163		3.32182276		-0.00028615		-0.00002363		 0.00018393	
O		4.35856201		5.96335868		6.02594558		 0.00028615		 0.00002363		-0.00018393	
O		4.35856201		5.96335868		3.32182276		 0.00028615		 0.00002363		 0.00018393	
O		0.73083781		8.00464163		6.02594558		-0.00028615		-0.00002363		-0.00018393	
O		5.00058979		3.51784100		1.48816494		-0.00022384		-0.00010134		 0.00024359	
O		0.08881003		10.45015881		7.85960391		 0.00022384		 0.00010134		-0.00024359	
O		0.08881003		10.45015881		1.48816494		 0.00022384		 0.00010134		 0.00024359	
O		5.00058979		3.51784100		7.85960391		-0.00022384		-0.00010134		-0.00024359	
O		2.63350994		10.50184065		3.18572000		 0.00022384		-0.00010134		-0.00024359	
O		2.45588988		3.46615865		6.16204987		-0.00022384		 0.00010134		 0.00024359	
O		2.45588988		3.46615865		3.18572000		-0.00022384		 0.00010134		-0.00024359	
O		2.63350994		10.50184065		6.16204987		 0.00022384		-0.00010134		 0.00024359	
O		0.99589376		12.86159431		0.00000000		-0.00005088		 0.00042610		-0.00000000	
O		4.09350606		1.10640498		0.00000000		 0.00005088		-0.00042610		-0.00000000	
O		1.54880615		5.87759466		4.67388493		 0.00005088		 0.00042610		0.00000000	
O		3.54059367		8.09040463		4.67388493		-0.00005088		-0.00042610		0.00000000	
H		4.69802498		4.22671703		1.01423290		-0.00038750		-0.00017842		-0.00058176	
H		0.39137485		9.74128277		8.33353595		 0.00038750		 0.00017842		 0.00058176	
H		0.39137485		9.74128277		1.01423290		 0.00038750		 0.00017842		-0.00058176	
H		4.69802498		4.22671703		8.33353595		-0.00038750		-0.00017842		 0.00058176	
H		2.93607476		11.21071668		3.65965203		 0.00038750		-0.00017842		 0.00058176	
H		2.15332506		2.75728312		5.68811783		-0.00038750		 0.00017842		-0.00058176	
H		2.15332506		2.75728312		3.65965203		-0.00038750		 0.00017842		 0.00058176	
H		2.93607476		11.21071668		5.68811783		 0.00038750		-0.00017842		-0.00058176	
