# total energy = -20631.4127188 eV	

CRYSTAL	
PRIMVEC	
		9.35174966		0.00000000		0.00000000	
		0.00000000		5.77000148		0.00000000	
		0.00000000		0.00000000		4.70000234	
PRIMCOORD
   28 1	
Si		7.87417228		2.88499981		4.11344003		-0.00014137		0.00000000		-0.00012881	
Si		1.47757551		2.88499981		0.58656044		 0.00014137		0.00000000		 0.00012881	
Si		3.01687444		0.00000000		4.14728027		 0.00022607		0.00000000		-0.00017989	
Si		6.33487522		0.00000000		0.55272020		-0.00022607		0.00000000		 0.00017989	
Mg		4.67587483		2.88499981		0.00000000		0.00000000		0.00000000		0.00000000	
Mg		0.00000000		0.00000000		2.35000024		0.00000000		0.00000000		0.00000000	
Mg		0.00000000		2.88499981		2.35000024		0.00000000		0.00000000		0.00000000	
Mg		4.67587483		0.00000000		2.35000024		0.00000000		0.00000000		0.00000000	
Mg		2.32110426		1.45807898		2.34530005		-0.00061945		-0.00027211		 0.00039331	
Mg		7.03064446		4.31192063		2.35469949		 0.00061945		 0.00027211		-0.00039331	
Mg		7.03064446		1.45807898		2.35469949		 0.00061945		-0.00027211		-0.00039331	
Mg		2.32110426		4.31192063		2.34530005		-0.00061945		 0.00027211		 0.00039331	
O		2.94954184		2.88499981		0.98934965		 0.00074695		0.00000000		-0.00012615	
O		6.40220781		2.88499981		3.71064989		-0.00074695		0.00000000		 0.00012615	
O		1.53555729		2.88499981		3.64578989		-0.00001540		0.00000000		 0.00042188	
O		7.81619143		2.88499981		1.05420965		 0.00001540		-0.00000000		-0.00042188	
O		7.76662809		0.00000000		1.09697987		-0.00042679		0.00000000		 0.00001156	
O		1.58512157		0.00000000		3.60301966		 0.00042679		0.00000000		-0.00001156	
O		3.11413264		0.00000000		1.08523034		-0.00008474		0.00000000		 0.00045503	
O		6.23761702		0.00000000		3.61477014		 0.00008474		0.00000000		-0.00045503	
O		0.79583390		1.50077720		1.07489011		-0.00019179		 0.00026903		 0.00077873	
O		8.55591576		4.26922241		3.62510943		 0.00019179		-0.00026903		-0.00077873	
O		8.55591576		1.50077720		3.62510943		 0.00019179		 0.00026903		-0.00077873	
O		0.79583390		4.26922241		1.07489011		-0.00019179		-0.00026903		 0.00077873	
O		5.54745790		1.31613719		1.03869977		-0.00004983		 0.00047241		-0.00054492	
O		3.80429176		4.45386242		3.66129977		 0.00004983		-0.00047241		 0.00054492	
O		3.80429176		1.31613719		3.66129977		 0.00004983		 0.00047241		 0.00054492	
O		5.54745790		4.45386242		1.03869977		-0.00004983		-0.00047241		-0.00054492	
