# total energy = -20634.4156582 eV	

CRYSTAL	
PRIMVEC	
		11.12099965		0.00000000		0.00000000	
		0.00000000		5.76999722		0.00000000	
		0.00000000		0.00000000		4.70000136	
PRIMCOORD
   28 1	
Si		9.36388170		2.88499972		4.11343980		 0.00005748		0.00000000		-0.00061619	
Si		1.75711794		2.88499972		0.58656044		-0.00005748		0.00000000		 0.00061619	
Si		3.58763449		0.00000000		4.14727989		 0.00037123		0.00000000		 0.00008336	
Si		7.53336516		0.00000000		0.55272036		-0.00037123		0.00000000		-0.00008336	
Mg		5.56049982		2.88499972		0.00000000		0.00000000		0.00000000		0.00000000	
Mg		0.00000000		0.00000000		2.34999957		0.00000000		0.00000000		0.00000000	
Mg		0.00000000		2.88499972		2.34999957		0.00000000		0.00000000		0.00000000	
Mg		5.56049982		0.00000000		2.34999957		0.00000000		0.00000000		0.00000000	
Mg		2.76023211		1.45807871		2.34529983		-0.00085576		 0.00012905		-0.00003693	
Mg		8.36076754		4.31192073		2.35470041		 0.00085576		-0.00012905		 0.00003693	
Mg		8.36076754		1.45807871		2.35470041		 0.00085576		 0.00012905		 0.00003693	
Mg		2.76023211		4.31192073		2.34529983		-0.00085576		-0.00012905		-0.00003693	
O		3.50756329		2.88499972		0.98934971		-0.00083448		-0.00000000		-0.00018828	
O		7.61343525		2.88499972		3.71064942		 0.00083448		-0.00000000		 0.00018828	
O		1.82606814		2.88499972		3.64578953		 0.00006774		0.00000000		 0.00000808	
O		9.29493039		2.88499972		1.05420960		-0.00006774		0.00000000		-0.00000808	
O		9.23599021		0.00000000		1.09697985		-0.00037675		0.00000000		-0.00035361	
O		1.88500944		0.00000000		3.60302039		 0.00037675		0.00000000		 0.00035361	
O		3.70329288		0.00000000		1.08523052		 0.00009101		0.00000000		 0.00025948	
O		7.41770677		0.00000000		3.61476973		-0.00009101		0.00000000		-0.00025948	
O		0.94639707		1.50077668		1.07489021		-0.00030520		 0.00014844		 0.00022034	
O		10.17460258		4.26922276		3.62511003		 0.00030520		-0.00014844		-0.00022034	
O		10.17460258		1.50077668		3.62511003		 0.00030520		 0.00014844		-0.00022034	
O		0.94639707		4.26922276		1.07489021		-0.00030520		-0.00014844		 0.00022034	
O		6.59697699		1.31613695		1.03870026		 0.00026816		 0.00032612		-0.00002334	
O		4.52402154		4.45386249		3.66129999		-0.00026816		-0.00032612		 0.00002334	
O		4.52402154		1.31613695		3.66129999		-0.00026816		 0.00032612		 0.00002334	
O		6.59697699		4.45386249		1.03870026		 0.00026816		-0.00032612		-0.00002334	
