# total energy = -20632.604861 eV	

CRYSTAL	
PRIMVEC	
		9.60450003		0.00000000		0.00000000	
		0.00000000		5.76999944		0.00000000	
		0.00000000		0.00000000		4.70000051	
PRIMCOORD
   28 1	
Si		8.08698903		2.88499972		4.11344025		-0.00002280		0.00000000		-0.00030915	
Si		1.51751101		2.88499972		0.58656026		 0.00002280		0.00000000		 0.00030915	
Si		3.09841171		0.00000000		4.14727978		 0.00053214		0.00000000		 0.00009348	
Si		6.50608832		0.00000000		0.55271977		-0.00053214		0.00000000		-0.00009348	
Mg		4.80225002		2.88499972		0.00000000		0.00000000		0.00000000		0.00000000	
Mg		0.00000000		0.00000000		2.35000025		0.00000000		0.00000000		0.00000000	
Mg		0.00000000		2.88499972		2.35000025		0.00000000		0.00000000		0.00000000	
Mg		4.80225002		0.00000000		2.35000025		0.00000000		0.00000000		0.00000000	
Mg		2.38383691		1.45807932		2.34529981		-0.00060038		-0.00025668		 0.00025796	
Mg		7.22066312		4.31192108		2.35469974		 0.00060038		 0.00025668		-0.00025796	
Mg		7.22066312		1.45807932		2.35469974		 0.00060038		-0.00025668		-0.00025796	
Mg		2.38383691		4.31192108		2.34529981		-0.00060038		 0.00025668		 0.00025796	
O		3.02925931		2.88499972		0.98934994		 0.00093329		0.00000000		-0.00019874	
O		6.57523976		2.88499972		3.71064960		-0.00093329		0.00000000		 0.00019874	
O		1.57705891		2.88499972		3.64579042		-0.00003620		-0.00000000		 0.00027090	
O		8.02744113		2.88499972		1.05421009		 0.00003620		-0.00000000		-0.00027090	
O		7.97653728		0.00000000		1.09697989		-0.00017569		0.00000000		 0.00020451	
O		1.62796276		0.00000000		3.60301966		 0.00017569		-0.00000000		-0.00020451	
O		3.19829755		0.00000000		1.08522975		-0.00009856		0.00000000		 0.00024695	
O		6.40620056		0.00000000		3.61476980		 0.00009856		0.00000000		-0.00024695	
O		0.81734295		1.50077708		1.07488954		-0.00026412		 0.00011456		 0.00085836	
O		8.78715708		4.26922332		3.62511001		 0.00026412		-0.00011456		-0.00085836	
O		8.78715708		1.50077708		3.62511001		 0.00026412		 0.00011456		-0.00085836	
O		0.81734295		4.26922332		1.07488954		-0.00026412		-0.00011456		 0.00085836	
O		5.69738942		1.31613729		1.03869979		-0.00015944		 0.00067563		-0.00048797	
O		3.90710965		4.45386311		3.66129976		 0.00015944		-0.00067563		 0.00048797	
O		3.90710965		1.31613729		3.66129976		 0.00015944		 0.00067563		 0.00048797	
O		5.69738942		4.45386311		1.03869979		-0.00015944		-0.00067563		-0.00048797	
