# total energy = -20629.8294551 eV	

CRYSTAL	
PRIMVEC	
		9.09899981		0.00000000		0.00000000	
		0.00000000		5.77000334		0.00000000	
		0.00000000		0.00000000		4.69999736	
PRIMCOORD
   28 1	
Si		7.66135784		2.88499985		4.11344035		-0.00032328		0.00000000		-0.00008661	
Si		1.43764197		2.88499985		0.58655974		 0.00032328		0.00000000		 0.00008661	
Si		2.93533734		0.00000000		4.14727953		 0.00031472		0.00000000		 0.00016179	
Si		6.16366156		0.00000000		0.55271965		-0.00031472		0.00000000		-0.00016179	
Mg		4.54949990		2.88499985		0.00000000		0.00000000		0.00000000		0.00000000	
Mg		0.00000000		0.00000000		2.34999959		0.00000000		0.00000000		0.00000000	
Mg		0.00000000		2.88499985		2.34999959		0.00000000		0.00000000		0.00000000	
Mg		4.54949990		0.00000000		2.34999959		0.00000000		0.00000000		0.00000000	
Mg		2.25837175		1.45807923		2.34529996		-0.00081626		-0.00037159		 0.00062737	
Mg		6.84062806		4.31192047		2.35470013		 0.00081626		 0.00037159		-0.00062737	
Mg		6.84062806		1.45807923		2.35470013		 0.00081626		-0.00037159		-0.00062737	
Mg		2.25837175		4.31192047		2.34529996		-0.00081626		 0.00037159		 0.00062737	
O		2.86982454		2.88499985		0.98934972		 0.00076353		-0.00000000		 0.00002432	
O		6.22917527		2.88499985		3.71065037		-0.00076353		-0.00000000		-0.00002432	
O		1.49405577		2.88499985		3.64578997		 0.00001616		0.00000000		 0.00051865	
O		7.60494404		2.88499985		1.05421012		-0.00001616		0.00000000		-0.00051865	
O		7.55671843		0.00000000		1.09697997		-0.00028719		0.00000000		-0.00006601	
O		1.54227956		0.00000000		3.60302012		 0.00028719		0.00000000		 0.00006601	
O		3.02996694		0.00000000		1.08523043		-0.00014436		0.00000000		 0.00043883	
O		6.06903287		0.00000000		3.61476966		 0.00014436		0.00000000		-0.00043883	
O		0.77432488		1.50077720		1.07489032		-0.00012912		 0.00053412		 0.00083499	
O		8.32467492		4.26922250		3.62510977		 0.00012912		-0.00053412		-0.00083499	
O		8.32467492		1.50077720		3.62510977		 0.00012912		 0.00053412		-0.00083499	
O		0.77432488		4.26922250		1.07489032		-0.00012912		-0.00053412		 0.00083499	
O		5.39752669		1.31613666		1.03869996		 0.00007680		 0.00027485		-0.00085362	
O		3.70147312		4.45386305		3.66130013		-0.00007680		-0.00027485		 0.00085362	
O		3.70147312		1.31613666		3.66130013		-0.00007680		 0.00027485		 0.00085362	
O		5.39752669		4.45386305		1.03869996		 0.00007680		-0.00027485		-0.00085362	
