# total energy = -20633.4562736 eV	

CRYSTAL	
PRIMVEC	
		9.85724988		0.00000000		0.00000000	
		0.00000000		5.77000036		0.00000000	
		0.00000000		0.00000000		4.69999589	
PRIMCOORD
   28 1	
Si		8.29980341		2.88500018		4.11344023		 0.00006211		0.00000000		-0.00039152	
Si		1.55744450		2.88500018		0.58655960		-0.00006211		0.00000000		 0.00039152	
Si		3.17994881		0.00000000		4.14728017		 0.00035939		0.00000000		 0.00026767	
Si		6.67730107		0.00000000		0.55271966		-0.00035939		0.00000000		-0.00026767	
Mg		4.92862494		2.88500018		0.00000000		0.00000000		0.00000000		0.00000000	
Mg		0.00000000		0.00000000		2.34999991		0.00000000		0.00000000		0.00000000	
Mg		0.00000000		2.88500018		2.34999991		0.00000000		0.00000000		0.00000000	
Mg		4.92862494		0.00000000		2.34999991		0.00000000		0.00000000		0.00000000	
Mg		2.44656942		1.45807947		2.34529998		-0.00009141		-0.00006626		 0.00044142	
Mg		7.41067947		4.31192089		2.35469985		 0.00009141		 0.00006626		-0.00044142	
Mg		7.41067947		1.45807947		2.35469985		 0.00009141		-0.00006626		-0.00044142	
Mg		2.44656942		4.31192089		2.34529998		-0.00009141		 0.00006626		 0.00044142	
O		3.10897661		2.88500018		0.98934950		 0.00060074		0.00000000		 0.00006853	
O		6.74827327		2.88500018		3.71065033		-0.00060074		0.00000000		-0.00006853	
O		1.61856043		2.88500018		3.64578963		-0.00019664		0.00000000		 0.00017460	
O		8.23868846		2.88500018		1.05421020		 0.00019664		0.00000000		-0.00017460	
O		8.18644603		0.00000000		1.09697982		 0.00017988		0.00000000		 0.00010891	
O		1.67080385		0.00000000		3.60302000		-0.00017988		0.00000000		-0.00010891	
O		3.28246421		0.00000000		1.08522998		-0.00042482		0.00000000		 0.00071548	
O		6.57478468		0.00000000		3.61476985		 0.00042482		0.00000000		-0.00071548	
O		0.83885196		1.50077714		1.07488973		-0.00044219		-0.00042257		 0.00047338	
O		9.01839792		4.26922322		3.62511010		 0.00044219		 0.00042257		-0.00047338	
O		9.01839792		1.50077714		3.62511010		 0.00044219		-0.00042257		-0.00047338	
O		0.83885196		4.26922322		1.07488973		-0.00044219		 0.00042257		 0.00047338	
O		5.84732063		1.31613705		1.03869982		 0.00005847		 0.00045640		-0.00022241	
O		4.00992925		4.45386331		3.66130001		-0.00005847		-0.00045640		 0.00022241	
O		4.00992925		1.31613705		3.66130001		-0.00005847		 0.00045640		 0.00022241	
O		5.84732063		4.45386331		1.03869982		 0.00005847		-0.00045640		-0.00022241	
