# total energy = -12337.3907695 eV	

CRYSTAL	
PRIMVEC	
		2.46199927		0.00000000		0.19695945	
		0.00000000		8.05299987		0.00000000	
		0.48864072		0.00000000		6.10800032	
PRIMCOORD
   20 1	
O		0.12216006		0.58786906		1.52699996		 0.00003055		-0.00063223		-0.00003177	
O		0.36647992		7.46513081		4.58099987		-0.00003055		 0.00063223		 0.00003177	
O		1.35315994		4.61436899		1.62547993		 0.00003046		-0.00063233		-0.00003003	
O		1.59748005		3.43863088		4.67947984		-0.00003046		 0.00063233		 0.00003003	
O		0.21549011		2.92323904		2.69362797		-0.00011010		-0.00019831		 0.00035020	
O		0.27315011		5.12976083		3.41437186		 0.00011010		 0.00019831		-0.00035020	
O		0.45980997		5.12976083		5.74762789		-0.00011812		 0.00017706		 0.00037191	
O		0.02883000		2.92323904		0.36037194		 0.00011812		-0.00017706		-0.00037191	
O		1.44648999		6.94973997		2.79210794		-0.00010992		-0.00019866		 0.00034979	
O		1.50414999		1.10326089		3.51285183		 0.00010992		 0.00019866		-0.00034979	
O		1.69080985		1.10326089		5.84610786		-0.00011823		 0.00017676		 0.00037211	
O		1.25982988		6.94973997		0.45885191		 0.00011823		-0.00017676		-0.00037211	
Si		0.00000000		0.00000000		0.00000000		0.00000000		0.00000000		0.00000000	
Si		0.24432011		0.00000000		3.05399991		0.00000000		0.00000000		0.00000000	
Si		1.23099988		4.02649994		0.09847997		0.00000000		0.00000000		0.00000000	
Si		1.47531999		4.02649994		3.15247988		0.00000000		0.00000000		0.00000000	
Mg		0.36647992		2.03740908		4.58099987		-0.00002951		 0.00030937		-0.00003959	
Mg		0.12216006		6.01559079		1.52699996		 0.00002951		-0.00030937		 0.00003959	
Mg		1.59748005		6.06391001		4.67947984		-0.00002944		 0.00030947		-0.00003961	
Mg		1.35315994		1.98909085		1.62547993		 0.00002944		-0.00030947		 0.00003961	
