# total energy = -12349.7366165 eV

CRYSTAL
PRIMVEC
		4.44490009		0.00000000		0.00000000
		0.00000000		4.66479819		0.00000000
		0.00000000		0.00000000		6.61575818
PRIMECORD
   20 1
O		0.47515982		2.21811227		1.65394021		 0.00030839		 0.00035699		-0.00000000
O		3.96974027		2.44668814		4.96182019		-0.00030839		-0.00035699		-0.00000000
O		2.69760987		0.11428816		4.96182019		 0.00030839		-0.00035699		0.00000000
O		1.74729023		4.55051314		1.65394021		-0.00030839		 0.00035699		0.00000000
O		0.83697513		0.90450517		3.71871899		 0.00021496		 0.00000746		-0.00019837
O		3.60792496		3.76029525		2.89704098		-0.00021496		-0.00000746		 0.00019837
O		3.05942518		1.42789482		2.89704098		 0.00021496		-0.00000746		 0.00019837
O		1.38547491		3.23690515		3.71871899		-0.00021496		 0.00000746		-0.00019837
O		3.60792496		3.76029525		0.41083900		-0.00021496		-0.00000746		-0.00019837
O		0.83697513		0.90450517		6.20492096		 0.00021496		 0.00000746		 0.00019837
O		1.38547491		3.23690515		6.20492096		-0.00021496		 0.00000746		 0.00019837
O		3.05942518		1.42789482		0.41083900		 0.00021496		-0.00000746		-0.00019837
Mg		2.30334723		2.71351416		1.65394021		-0.00022124		-0.00026263		-0.00000000
Mg		2.14155286		1.95128625		4.96182019		 0.00022124		 0.00026263		-0.00000000
Mg		0.08089718		4.28368623		4.96182019		-0.00022124		 0.00026263		0.00000000
Mg		4.36400291		0.38111418		1.65394021		 0.00022124		-0.00026263		0.00000000
Si		2.22245005		0.00000000		3.30787998		0.00000000		0.00000000		-0.00000000
Si		0.00000000		2.33239998		3.30787998		0.00000000		0.00000000		-0.00000000
Si		2.22245005		0.00000000		0.00000000		0.00000000		0.00000000		-0.00000000
Si		0.00000000		2.33239998		0.00000000		0.00000000		0.00000000		-0.00000000
