# total energy = -12344.1672256 eV

CRYSTAL
PRIMVEC
		4.44490009		0.00000000		0.00000000
		0.00000000		4.66479819		0.00000000
		0.00000000		0.00000000		6.13168189
PRIMECORD
   20 1
O		0.47515982		2.21811227		1.53292025		 0.00044744		 0.00036212		-0.00000000
O		3.96974027		2.44668814		4.59876031		-0.00044744		-0.00036212		-0.00000000
O		2.69760987		0.11428816		4.59876031		 0.00044744		-0.00036212		0.00000000
O		1.74729023		4.55051314		1.53292025		-0.00044744		 0.00036212		0.00000000
O		0.83697513		0.90450517		3.44661687		 0.00043707		 0.00022135		-0.00013541
O		3.60792496		3.76029525		2.68506325		-0.00043707		-0.00022135		 0.00013541
O		3.05942518		1.42789482		2.68506325		 0.00043707		-0.00022135		 0.00013541
O		1.38547491		3.23690515		3.44661687		-0.00043707		 0.00022135		-0.00013541
O		3.60792496		3.76029525		0.38077681		-0.00043707		-0.00022135		-0.00013541
O		0.83697513		0.90450517		5.75090331		 0.00043707		 0.00022135		 0.00013541
O		1.38547491		3.23690515		5.75090331		-0.00043707		 0.00022135		 0.00013541
O		3.05942518		1.42789482		0.38077681		 0.00043707		-0.00022135		-0.00013541
Mg		2.30334723		2.71351416		1.53292025		-0.00037003		-0.00045189		0.00000000
Mg		2.14155286		1.95128625		4.59876031		 0.00037003		 0.00045189		0.00000000
Mg		0.08089718		4.28368623		4.59876031		-0.00037003		 0.00045189		0.00000000
Mg		4.36400291		0.38111418		1.53292025		 0.00037003		-0.00045189		0.00000000
Si		2.22245005		0.00000000		3.06584006		0.00000000		0.00000000		-0.00000000
Si		0.00000000		2.33239998		3.06584006		0.00000000		0.00000000		0.00000000
Si		2.22245005		0.00000000		0.00000000		0.00000000		0.00000000		0.00000000
Si		0.00000000		2.33239998		0.00000000		0.00000000		0.00000000		0.00000000
