# total energy = -34524.1849392 eV

CRYSTAL
PRIMVEC
		9.34399986		0.00000000		0.00000000
		0.00000000		5.30799928		0.84927615
		-0.48050585		2.12501245		13.28130911
PRIMECORD
   56 1
Si		1.25702494		3.31308334		5.22921161		-0.00034392		-0.00001853		-0.00046639
Si		7.60647094		4.11992652		8.90137925		 0.00034392		 0.00001853		 0.00046639
Si		7.84672293		2.83236258		2.22471386		 0.00008591		-0.00015617		 0.00012348
Si		1.01677295		4.60064728		11.90587700		-0.00008591		 0.00015617		-0.00012348
Si		5.92902487		5.96708298		5.65385155		 0.00002607		 0.00002956		-0.00034226
Si		2.93447101		1.46592688		8.47673931		-0.00002607		-0.00002956		 0.00034226
Si		3.17472300		5.48636315		2.64935380		-0.00000959		-0.00011555		 0.00009944
Si		5.68877288		1.94664670		11.48123706		 0.00000959		 0.00011555		-0.00009944
Mg		4.43174794		3.71650493		7.06529450		0.00000000		0.00000000		0.00000000
Mg		4.67199993		2.65399964		0.42463994		0.00000000		0.00000000		0.00000000
Mg		-0.24025199		1.06250529		6.64065455		0.00000000		0.00000000		0.00000000
Mg		0.00000000		0.00000000		0.00000000		0.00000000		0.00000000		0.00000000
O		0.46208042		1.92971070		5.15268612		 0.00010722		-0.00008357		-0.00027128
O		8.40141453		5.50329915		8.97790474		-0.00010722		 0.00008357		 0.00027128
O		8.64166745		1.40143272		1.85095200		 0.00024663		-0.00000026		 0.00030064
O		0.22182843		6.03157620		12.27963886		-0.00024663		 0.00000026		-0.00030064
O		5.13408034		4.58371128		5.57732606		 0.00004341		-0.00014726		-0.00025097
O		3.72941553		2.84929858		8.55326480		-0.00004341		 0.00014726		 0.00025097
O		3.96966752		4.05543329		2.27559194		 0.00028301		-0.00003427		 0.00031568
O		4.89382835		3.37757563		11.85499892		-0.00028301		 0.00003427		-0.00031568
O		2.66276525		3.33949976		6.02790588		 0.00015169		-0.00028005		 0.00019810
O		6.20072970		4.09350916		8.10268498		-0.00015169		 0.00028005		-0.00019810
O		6.44098262		2.59787210		1.39272785		 0.00008172		 0.00053892		-0.00016412
O		2.42251326		4.83513776		12.73786208		-0.00008172		-0.00053892		 0.00016412
O		7.33476517		5.99350034		6.45254582		-0.00005318		-0.00031009		 0.00016648
O		1.52873070		1.43950952		7.67804504		 0.00005318		 0.00031009		-0.00016648
O		1.76898269		5.25187174		1.81736873		 0.00014627		 0.00054271		-0.00013345
O		7.09451318		2.18113812		12.31322213		-0.00014627		-0.00054271		 0.00013345
O		0.40556510		4.56416363		6.24067623		-0.00060037		-0.00013001		-0.00031334
O		8.45793078		2.86884529		7.88991463		 0.00060037		 0.00013001		 0.00031334
O		8.69818277		3.81701086		1.57096652		-0.00026624		 0.00005891		 0.00023458
O		0.16531218		3.61599900		12.55962248		 0.00026624		-0.00005891		-0.00023458
O		5.07756409		1.91016399		5.81603629		-0.00065254		-0.00010407		-0.00027937
O		3.78593085		5.52284493		8.31455457		 0.00065254		 0.00010407		 0.00027937
O		4.02618284		1.16301122		1.14632657		-0.00025901		 0.00006469		 0.00023070
O		4.83731210		6.26999864		12.98426242		 0.00025901		-0.00006469		-0.00023070
O		1.45510185		3.64821991		3.84880756		-0.00055656		 0.00006254		 0.00016829
O		7.40839402		3.78478901		10.28178330		 0.00055656		-0.00006254		-0.00016829
O		7.64864601		3.63844515		3.78771368		-0.00027198		 0.00003380		-0.00018637
O		1.21484893		3.79456377		10.34287811		 0.00027198		-0.00003380		 0.00018637
O		6.12710085		0.99422027		3.42416668		-0.00064775		 0.00008765		 0.00002683
O		2.73639410		6.43878865		10.70642325		 0.00064775		-0.00008765		-0.00002683
O		2.97664609		0.98444458		3.36307374		-0.00023022		 0.00002100		-0.00019651
O		5.88684886		6.44856434		10.76751805		 0.00023022		-0.00002100		 0.00019651
Ca		1.59139157		2.73785830		1.59526933		-0.00016646		 0.00000369		 0.00019211
Ca		7.27210244		4.69515062		12.53532060		 0.00016646		-0.00000369		-0.00019211
Ca		7.51235443		3.42032630		5.86069500		 0.00028615		 0.00033414		-0.00000564
Ca		1.35113958		4.01268263		8.26989586		-0.00028615		-0.00033414		 0.00000564
Ca		6.26339149		5.39185887		2.01990927		-0.00013070		 0.00000162		 0.00018803
Ca		2.60010251		2.04115098		12.11068066		 0.00013070		-0.00000162		-0.00018803
Ca		2.84035450		6.07432687		6.28533494		 0.00023322		 0.00034313		-0.00000742
Ca		6.02313950		1.35868299		7.84525592		-0.00023322		-0.00034313		 0.00000742
Ca		-0.12012646		5.46291532		4.10939396		-0.00016033		-0.00023123		 0.00003277
Ca		-0.36037845		1.97009360		10.02119690		 0.00016033		 0.00023123		-0.00003277
Ca		4.55187347		2.80891475		3.68475402		-0.00014714		-0.00022524		 0.00001080
Ca		4.31162148		4.62409511		10.44583684		 0.00014714		 0.00022524		-0.00001080
