# total energy = -34531.3638541 eV

CRYSTAL
PRIMVEC
		9.34399986		0.00000000		0.00000000
		0.00000000		5.30799928		0.21232371
		-0.48050585		0.53125311		13.28130911
PRIMECORD
   56 1
Si		1.25702494		2.73437392		4.92423560		-0.00000827		 0.00017161		 0.00022174
Si		7.60647094		3.10487940		8.56939442		 0.00000827		-0.00017161		-0.00022174
Si		7.84672293		2.61419420		1.91973692		-0.00025483		-0.00018095		 0.00005541
Si		1.01677295		3.22505912		11.57389310		 0.00025483		 0.00018095		-0.00005541
Si		5.92902487		5.38837356		5.03039558		-0.00008886		 0.00002099		 0.00050408
Si		2.93447101		0.45087883		8.46323443		 0.00008886		-0.00002099		-0.00050408
Si		3.17472300		5.26819384		2.02589690		-0.00038307		-0.00017409		 0.00012205
Si		5.68877288		0.57105855		11.46773311		 0.00038307		 0.00017409		-0.00012205
Mg		4.43174794		2.91962619		6.74681454		0.00000000		0.00000000		0.00000000
Mg		4.67199993		2.65399964		0.10615999		0.00000000		0.00000000		0.00000000
Mg		-0.24025199		0.26562562		6.64065455		0.00000000		0.00000000		0.00000000
Mg		0.00000000		0.00000000		0.00000000		0.00000000		0.00000000		0.00000000
O		0.46208042		1.33316733		5.01656646		 0.00008070		 0.00008329		 0.00072466
O		8.40141453		4.50608506		8.47706261		-0.00008070		-0.00008329		-0.00072466
O		8.64166745		1.20109830		1.71483421		 0.00007307		 0.00029885		 0.00018022
O		0.22182843		4.63815409		11.77879673		-0.00007307		-0.00029885		-0.00018022
O		5.13408034		3.98716697		5.12272738		 0.00012813		 0.00016851		 0.00069925
O		3.72941553		1.85208542		8.37090263		-0.00012813		-0.00016851		-0.00069925
O		3.96966752		3.85509794		1.82099420		 0.00010821		 0.00026824		 0.00016430
O		4.89382835		1.98415352		11.67263675		-0.00010821		-0.00026824		-0.00016430
O		2.66276525		2.66295026		5.73541345		-0.00043821		-0.00022284		 0.00081596
O		6.20072970		3.17630213		7.75821656		 0.00043821		 0.00022284		-0.00081596
O		6.44098262		2.47754287		1.10023636		-0.00002244		-0.00002642		-0.00024408
O		2.42251326		3.36170858		12.39339365		 0.00002244		 0.00002642		 0.00024408
O		7.33476517		5.31694990		5.84157437		-0.00043947		-0.00021872		 0.00079752
O		1.52873070		0.52230156		7.65205657		 0.00043947		 0.00021872		-0.00079752
O		1.76898269		5.13154251		1.20639635		 0.00003609		-0.00002320		-0.00023128
O		7.09451318		0.70770894		12.28723367		-0.00003609		 0.00002320		 0.00023128
O		0.40556510		3.88554256		5.80155496		-0.00024107		-0.00026070		-0.00019375
O		8.45793078		1.95370983		7.69207599		 0.00024107		 0.00026070		 0.00019375
O		8.69818277		3.69875413		1.13184711		 0.00021707		-0.00014679		-0.00031040
O		0.16531218		2.14049826		12.36178383		-0.00021707		 0.00014679		 0.00031040
O		5.07756409		1.23154292		5.69539497		-0.00021442		-0.00028096		-0.00022519
O		3.78593085		4.60770947		7.79823598		 0.00021442		 0.00028096		 0.00022519
O		4.02618284		1.04475356		1.02568713		 0.00026696		-0.00010613		-0.00034307
O		4.83731210		4.79449790		12.46794382		-0.00026696		 0.00010613		 0.00034307
O		1.45510185		3.24611583		3.47535778		-0.00018557		-0.00007096		-0.00027006
O		7.40839402		2.59313656		10.01827223		 0.00018557		 0.00007096		 0.00027006
O		7.64864601		3.24367237		3.41426391		-0.00036400		-0.00006235		-0.00021551
O		1.21484893		2.59558095		10.07936704		 0.00036400		 0.00006235		 0.00021551
O		6.12710085		0.59211525		3.36919780		-0.00015472		-0.00000057		-0.00049164
O		2.73639410		5.24713714		10.12443222		 0.00015472		 0.00000057		 0.00049164
O		2.97664609		0.58967180		3.30810392		-0.00034213		-0.00007441		-0.00026223
O		5.88684886		5.24958059		10.18552702		 0.00034213		 0.00007441		 0.00026223
Ca		1.59139157		2.59534455		1.28952804		-0.00022238		 0.00009371		-0.00008300
Ca		7.27210244		3.24390784		12.20410197		 0.00022238		-0.00009371		 0.00008300
Ca		7.51235443		2.76596225		5.55495372		-0.00045389		-0.00068711		-0.00066752
Ca		1.35113958		3.07329108		7.93867723		 0.00045389		 0.00068711		 0.00066752
Ca		6.26339149		5.24934512		1.39568803		-0.00020223		 0.00009374		-0.00008709
Ca		2.60010251		0.58990820		12.09794198		 0.00020223		-0.00009374		 0.00008709
Ca		2.84035450		5.41996189		5.66111370		-0.00043612		-0.00069274		-0.00066048
Ca		6.02313950		0.41929144		7.83251724		 0.00043612		 0.00069274		 0.00066048
Ca		-0.12012646		5.06447595		3.51759360		 0.00000719		-0.00005369		-0.00046998
Ca		-0.36037845		0.77477737		9.97603642		-0.00000719		 0.00005369		 0.00046998
Ca		4.55187347		2.41047631		3.41143361		-0.00001295		-0.00004238		-0.00045631
Ca		4.31162148		3.42877701		10.08219640		 0.00001295		 0.00004238		 0.00045631
