# total energy = -10828.6123737 eV	

CRYSTAL	
PRIMVEC	
		3.03200124		0.48512155		0.00000000	
		-1.09587524		2.38322782		0.00000000	
		0.00000000		0.00000000		14.96000193	
PRIMCOORD
   13 1	
Mg		1.65604200		1.11782303		2.49333304		 0.00000190		 0.00013148		-0.00014911	
Mg		0.28008399		1.75052604		12.46666643		-0.00000190		-0.00013148		 0.00014911	
Mg		0.00000000		0.00000000		0.00000000		0.00000000		0.00000000		0.00000000	
Mg		0.28008399		1.75052604		4.98666731		 0.00005008		 0.00015185		 0.00022286	
Mg		1.65604200		1.11782303		9.97333339		-0.00005008		-0.00015185		-0.00022286	
O		1.65604200		1.11782303		13.71333464		-0.00001554		-0.00022857		 0.00047635	
O		0.28008399		1.75052604		1.24666606		 0.00001554		 0.00022857		-0.00047635	
O		1.65604200		1.11782303		6.08872022		-0.00011634		-0.00024797		-0.00041581	
O		0.28008399		1.75052604		8.87128048		 0.00011634		 0.00024797		 0.00041581	
O		0.00000000		0.00000000		11.22299233		 0.00001513		 0.00004409		-0.00038293	
O		0.00000000		0.00000000		3.73700806		-0.00001513		-0.00004409		 0.00038293	
H		1.65604200		1.11782303		7.07907214		 0.00001541		 0.00016313		-0.00003505	
H		0.28008399		1.75052604		7.88092917		-0.00001541		-0.00016313		 0.00003505	
