# total energy = -10831.659045 eV	

CRYSTAL	
PRIMVEC	
		3.03199980		0.12127987		0.00000000	
		-1.41096785		2.56514755		0.00000000	
		0.00000000		0.00000000		14.95999706	
PRIMCOORD
   13 1	
Mg		1.55101078		0.93590294		2.49333274		-0.00007615		-0.00040936		 0.00020050	
Mg		0.07002086		1.75052570		12.46666462		 0.00007615		 0.00040936		-0.00020050	
Mg		0.00000000		0.00000000		0.00000000		0.00000000		0.00000000		0.00000000	
Mg		0.07002086		1.75052570		4.98666639		 0.00022049		-0.00033514		 0.00009581	
Mg		1.55100987		0.93590294		9.97333188		-0.00022049		 0.00033514		-0.00009581	
O		1.55101078		0.93590294		13.71333266		-0.00011345		 0.00033397		-0.00090374	
O		0.07002086		1.75052570		1.24666592		 0.00011345		-0.00033397		 0.00090374	
O		1.55101078		0.93590294		6.08871923		-0.00067970		 0.00004369		-0.00006405	
O		0.07002086		1.75052570		8.87127904		 0.00067970		-0.00004369		 0.00006405	
O		0.00000000		0.00000000		11.22299065		 0.00062180		-0.00014386		 0.00025089	
O		0.00000000		0.00000000		3.73700763		-0.00062180		 0.00014386		-0.00025089	
H		1.55101078		0.93590294		7.07907127		-0.00090480		-0.00025085		 0.00011065	
H		0.07002086		1.75052570		7.88092821		 0.00090480		 0.00025085		-0.00011065	
