# total energy = -10831.6592957 eV	

CRYSTAL	
PRIMVEC	
		3.03199980		-0.12127987		0.00000000	
		-1.62103195		2.68642742		0.00000000	
		0.00000000		0.00000000		14.95999706	
PRIMCOORD
   13 1	
Mg		1.48098993		0.81462276		2.49333274		 0.00008480		-0.00025902		-0.00004967	
Mg		-0.07002086		1.75052570		12.46666462		-0.00008480		 0.00025902		 0.00004967	
Mg		0.00000000		0.00000000		0.00000000		0.00000000		0.00000000		0.00000000	
Mg		-0.07002086		1.75052570		4.98666639		-0.00058899		-0.00031868		 0.00081059	
Mg		1.48098871		0.81462276		9.97333188		 0.00058899		 0.00031868		-0.00081059	
O		1.48098993		0.81462276		13.71333266		 0.00020229		 0.00032160		-0.00064035	
O		-0.07002086		1.75052570		1.24666592		-0.00020229		-0.00032160		 0.00064035	
O		1.48098993		0.81462276		6.08871923		 0.00093369		-0.00020212		-0.00033868	
O		-0.07002086		1.75052570		8.87127904		-0.00093369		 0.00020212		 0.00033868	
O		0.00000000		0.00000000		11.22299065		-0.00071820		-0.00002482		-0.00008535	
O		0.00000000		0.00000000		3.73700763		 0.00071820		 0.00002482		 0.00008535	
H		1.48098993		0.81462276		7.07907127		 0.00081250		-0.00019946		-0.00004374	
H		-0.07002086		1.75052570		7.88092821		-0.00081250		 0.00019946		 0.00004374	
