# total energy = -18389.8562841 eV

CRYSTAL
PRIMVEC
		5.22062977		-0.00043335		0.00002889
		0.00077040		9.20831145		0.00001926
		0.00002407		0.00000481		6.85803785
PRIMECORD
   28 1
Mg		-0.00006982		-0.00007126		-0.00009245		-0.00002948		-0.00001614		-0.00000018
Mg		2.61103810		4.60369734		0.00012086		-0.00002784		 0.00003591		-0.00000573
Mg		-0.00001685		-0.00011026		3.42915326		-0.00002917		-0.00001598		 0.00000056
Mg		2.61102269		4.60367085		3.42897607		-0.00002768		 0.00003627		 0.00000588
Ca		5.06400457		3.25263104		1.71451644		 0.00012278		-0.00003217		-0.00000761
Ca		0.15781595		5.95349777		5.14356040		-0.00011730		 0.00003537		 0.00000685
Ca		2.45350286		1.34963961		5.14352188		 0.00012398		 0.00003705		 0.00000644
Ca		2.76822617		7.85741849		1.71457615		-0.00011992		-0.00001347		-0.00000776
Si		2.42915389		1.65378630		1.71452030		 0.00025574		-0.00008131		-0.00004252
Si		2.79167763		7.55444619		5.14355848		-0.00028073		 0.00006428		 0.00004276
Si		5.04021173		2.94975455		5.14351177		 0.00026929		 0.00007079		 0.00006066
Si		0.18184665		6.25779757		1.71456219		-0.00026258		-0.00006981		-0.00006503
O		3.99302536		1.10791748		1.71447840		-0.00005849		-0.00005730		 0.00000538
O		1.22717587		8.09902747		5.14356040		 0.00011337		 0.00008755		-0.00000562
O		1.38380444		3.49543558		5.14350070		-0.00008276		 0.00006174		-0.00000703
O		3.83818797		5.71251522		1.71455400		 0.00009239		-0.00006422		 0.00000667
O		2.30075614		3.31081453		1.71453089		-0.00003094		 0.00007652		 0.00000648
O		2.92174329		5.89755325		5.14357052		 0.00001488		-0.00010019		-0.00000684
O		-0.31007924		1.29334216		5.14352285		-0.00003237		-0.00010509		-0.00000575
O		5.53176783		7.91437705		1.71455159		 0.00000175		 0.00008681		 0.00000618
O		1.63325080		1.08828287		0.40348976		-0.00010575		-0.00005128		-0.00005877
O		3.58644245		8.12163775		6.45454279		 0.00014241		 0.00000036		 0.00007009
O		4.24502800		3.51632498		6.45454183		-0.00012017		 0.00005641		 0.00004467
O		0.97713246		5.69146211		0.40351383		 0.00013480		-0.00002274		-0.00004001
O		3.58644389		8.12163967		3.83263002		 0.00016370		 0.00001511		-0.00010626
O		1.63330666		1.08821546		3.02550268		-0.00012708		-0.00006573		 0.00009611
O		0.97713679		5.69151460		3.02553928		 0.00016949		-0.00004816		 0.00010078
O		4.24502126		3.51628068		3.83255250		-0.00015233		 0.00007943		-0.00010039
