# total energy = -18389.515606 eV

CRYSTAL
PRIMVEC
		5.10211818		0.00022149		0.00000000
		-0.00031297		8.93360127		0.00001444
		0.00000481		0.00000481		6.66738793
PRIMECORD
   28 1
Mg		0.00004719		0.00000000		-0.00001733		-0.00000677		-0.00000140		 0.00000641
Mg		2.55088671		4.46693834		0.00002745		 0.00000632		 0.00000351		 0.00000468
Mg		0.00004959		0.00000000		3.33371226		-0.00000611		-0.00000140		-0.00000557
Mg		2.55088527		4.46693690		3.33368530		 0.00000614		 0.00000409		-0.00000556
Ca		5.01764479		3.17478405		1.66685324		 0.00013099		 0.00022012		-0.00000396
Ca		0.08417775		5.75905893		5.00054865		-0.00014204		-0.00021706		 0.00000394
Ca		2.46671619		1.29244368		5.00053902		 0.00012889		-0.00022672		 0.00000389
Ca		2.63514391		7.64160587		1.66686384		-0.00011269		 0.00021177		-0.00000392
Si		2.41763930		1.61956128		1.66686287		 0.00012378		 0.00014948		-0.00004100
Si		2.68420587		7.31428989		5.00053950		-0.00003044		-0.00013740		 0.00004001
Si		4.96857898		2.84754366		5.00053035		 0.00016738		-0.00015825		 0.00003783
Si		0.13321997		6.08625743		1.66687106		-0.00032815		 0.00017018		-0.00003747
O		3.96430678		1.07735571		1.66684506		 0.00001840		-0.00009047		-0.00001065
O		1.13756295		7.85638471		5.00055539		-0.00006282		 0.00012524		 0.00001078
O		1.41310468		3.38964282		5.00054432		-0.00000251		 0.00012090		 0.00001091
O		3.68855848		5.54422568		1.66685517		 0.00008068		-0.00008010		-0.00001115
O		2.26389395		3.25185678		1.66685083		 0.00011542		 0.00019477		-0.00001089
O		2.83795507		5.68197993		5.00055202		-0.00013438		-0.00019649		 0.00001126
O		-0.28704525		1.21499874		5.00054336		 0.00012061		-0.00018465		 0.00001123
O		5.38891931		7.71879176		1.66685998		-0.00010561		 0.00018961		-0.00001136
O		1.61684803		1.05794741		0.37715797		 0.00013306		-0.00011851		-0.00001468
O		3.48504530		7.87590135		6.29025404		-0.00015967		 0.00009675		-0.00002096
O		4.16770778		3.40901067		6.29022659		 0.00012976		 0.00012612		 0.00002812
O		0.93392554		5.52467437		0.37720082		-0.00008644		-0.00015229		-0.00008781
O		3.48503759		7.87589605		3.71086878		-0.00013759		 0.00011292		-0.00003596
O		1.61685958		1.05794837		2.95652300		 0.00011056		-0.00013485		 0.00007223
O		0.93391783		5.52467823		2.95650037		-0.00006552		-0.00016699		 0.00014285
O		4.16771259		3.40900152		3.71087504		 0.00010876		 0.00014109		-0.00008323
