# total energy = -7174.1765262 eV

CRYSTAL
PRIMVEC
		3.11200028		0.37343928		0.00000000
		-1.23258940		2.50835101		0.00000000
		0.00000000		0.00000000		12.76800013
PRIMECORD
   12 1
O		0.21560590		1.79671387		5.27829069		-0.00056621		-0.00001377		 0.00043191
O		1.66380278		1.08507705		7.48970850		 0.00056621		 0.00001377		-0.00043191
O		0.21560590		1.79671387		10.41613316		-0.00002316		-0.00061239		 0.00029349
O		1.66380278		1.08507705		2.35186477		 0.00002316		 0.00061239		-0.00029349
O		0.00000000		0.00000000		0.00000000		0.00000000		0.00000000		0.00000000
H		0.21560590		1.79671387		4.28877078		-0.00007476		 0.00000470		-0.00052801
H		1.66380278		1.08507705		8.47922747		 0.00007476		-0.00000470		 0.00052801
H		0.21560590		1.79671387		9.42533633		 0.00039422		-0.00047044		-0.00009546
H		1.66380278		1.08507705		3.34266160		-0.00039422		 0.00047044		 0.00009546
Mg		0.00000000		0.00000000		6.38399944		0.00000000		0.00000000		0.00000000
Mg		1.66380278		1.08507705		11.53333329		 0.00041745		 0.00028724		 0.00040171
Mg		0.21560590		1.79671387		1.23466589		-0.00041745		-0.00028724		-0.00040171
