# total energy = -7174.75847971 eV

CRYSTAL
PRIMVEC
		3.11199889		-0.24895929		0.00000000
		-1.77160546		2.81955095		0.00000000
		0.00000000		0.00000000		12.76799776
PRIMECORD
   12 1
O		-0.14373703		1.79671399		5.27829060		-0.00086772		 0.00003424		-0.00000257
O		1.48413077		0.77387704		7.48970842		 0.00086772		-0.00003424		 0.00000257
O		-0.14373703		1.79671399		10.41613313		-0.00026884		 0.00020007		-0.00026923
O		1.48413077		0.77387704		2.35186495		 0.00026884		-0.00020007		 0.00026923
O		0.00000000		0.00000000		0.00000000		0.00000000		0.00000000		0.00000000
H		-0.14373703		1.79671399		4.28877070		 0.00025269		-0.00014727		-0.00059628
H		1.48413077		0.77387704		8.47922738		-0.00025269		 0.00014727		 0.00059628
H		-0.14373703		1.79671399		9.42533635		-0.00048235		-0.00001163		-0.00032721
H		1.48413077		0.77387704		3.34266172		 0.00048235		 0.00001163		 0.00032721
Mg		0.00000000		0.00000000		6.38399951		0.00000000		0.00000000		0.00000000
Mg		1.48413077		0.77387704		11.53333297		-0.00005292		-0.00092312		 0.00080460
Mg		-0.14373703		1.79671399		1.23466604		 0.00005292		 0.00092312		-0.00080460
