# total energy = -7173.37531268 eV

CRYSTAL
PRIMVEC
		3.11200130		-0.49792159		0.00000000
		-1.98721113		2.94403143		0.00000000
		0.00000000		0.00000000		12.76800109
PRIMECORD
   12 1
O		-0.28747408		1.79671407		5.27829131		-0.00005917		-0.00065827		-0.00081691
O		1.41226298		0.64939703		7.48970946		 0.00005917		 0.00065827		 0.00081691
O		-0.28747408		1.79671407		10.41613458		-0.00023935		-0.00009561		-0.00028946
O		1.41226298		0.64939703		2.35186525		 0.00023935		 0.00009561		 0.00028946
O		0.00000000		0.00000000		0.00000000		0.00000000		0.00000000		0.00000000
H		-0.28747408		1.79671407		4.28877114		-0.00001821		 0.00025567		-0.00062947
H		1.41226298		0.64939703		8.47922837		 0.00001821		-0.00025567		 0.00062947
H		-0.28747408		1.79671407		9.42533739		-0.00005995		-0.00078663		 0.00060387
H		1.41226298		0.64939703		3.34266212		 0.00005995		 0.00078663		-0.00060387
Mg		0.00000000		0.00000000		6.38400023		0.00000000		0.00000000		0.00000000
Mg		1.41226298		0.64939703		11.53333448		 0.00032942		 0.00026141		-0.00090615
Mg		-0.28747408		1.79671407		1.23466598		-0.00032942		-0.00026141		 0.00090615
