# total energy = -20636.7581658 eV

CRYSTAL
PRIMVEC
		10.20140980		0.00000000		0.00000000
		0.00000000		5.98348390		0.00000000
		0.00000000		0.00000000		4.39869488
PRIMECORD
   28 1
Mg		0.00000000		0.00000000		0.00000000		0.00000000		0.00000000		0.00000000
Mg		5.10070490		0.00000000		2.19934540		0.00000000		0.00000000		0.00000000
Mg		0.00000000		2.99173991		0.00000000		0.00000000		0.00000000		0.00000000
Mg		5.10070490		2.99173991		2.19934540		0.00000000		0.00000000		0.00000000
Mg		2.82885094		1.49587046		4.36130060		 0.00070829		0.00000000		 0.00018666
Mg		7.37255886		4.48761037		0.03738919		-0.00070829		-0.00000000		-0.00018666
Mg		2.27185396		4.48761037		2.16195621		-0.00070829		0.00000000		 0.00018666
Mg		7.92955584		1.49587046		2.23673357		 0.00070829		0.00000000		-0.00018666
Si		0.95893252		1.49587046		1.87560060		 0.00064172		0.00000000		-0.00040400
Si		9.24247830		4.48761037		2.52308816		-0.00064172		0.00000000		 0.00040400
Si		4.14177340		4.48761037		4.07494600		-0.00064172		0.00000000		-0.00040400
Si		6.05963742		1.49587046		0.32374378		 0.00064172		0.00000000		 0.00040400
O		0.93444914		1.49587046		3.36631731		-0.00021382		0.00000000		-0.00086293
O		9.26696066		4.48761037		1.03237247		 0.00021382		-0.00000000		 0.00086293
O		4.16625576		4.48761037		1.16697191		 0.00021382		0.00000000		-0.00086293
O		6.03515404		1.49587046		3.23171685		-0.00021382		0.00000000		 0.00086293
O		4.55901004		1.49587046		0.97255038		 0.00038842		0.00000000		 0.00018467
O		5.64239976		4.48761037		3.42613940		-0.00038842		0.00000000		-0.00018467
O		0.54169486		4.48761037		3.17189476		-0.00038842		0.00000000		 0.00018467
O		9.65971596		1.49587046		1.22679502		 0.00038842		-0.00000000		-0.00018467
O		1.65976937		0.19865205		1.22195547		 0.00049895		-0.00037631		-0.00002041
O		8.54164042		5.78482776		3.17673431		-0.00049895		 0.00037631		 0.00002041
O		3.44093552		5.78482776		3.42130087		-0.00049895		 0.00037631		-0.00002041
O		6.76047529		0.19865205		0.97738891		 0.00049895		-0.00037631		 0.00002041
O		8.54164042		3.19039196		3.17673431		-0.00049895		-0.00037631		 0.00002041
O		1.65976937		2.79308785		1.22195547		 0.00049895		 0.00037631		-0.00002041
O		6.76047529		2.79308785		0.97738891		 0.00049895		 0.00037631		 0.00002041
O		3.44093552		3.19039196		3.42130087		-0.00049895		-0.00037631		-0.00002041
