# total energy = -20638.4257568 eV

CRYSTAL
PRIMVEC
		10.20140980		0.00000000		0.00000000
		0.00000000		5.98348390		0.00000000
		0.00000000		0.00000000		4.99311063
PRIMECORD
   28 1
Mg		0.00000000		0.00000000		0.00000000		0.00000000		-0.00000000		0.00000000
Mg		5.10070490		0.00000000		2.49655429		-0.00000000		0.00000000		0.00000000
Mg		0.00000000		2.99173991		0.00000000		-0.00000000		-0.00000000		0.00000000
Mg		5.10070490		2.99173991		2.49655429		0.00000000		0.00000000		-0.00000000
Mg		2.82885094		1.49587046		4.95066562		 0.00057958		0.00000000		-0.00008380
Mg		7.37255886		4.48761037		0.04244093		-0.00057958		0.00000000		 0.00008380
Mg		2.27185396		4.48761037		2.45411235		-0.00057958		0.00000000		-0.00008380
Mg		7.92955584		1.49587046		2.53899522		 0.00057958		0.00000000		 0.00008380
Si		0.95893252		1.49587046		2.12906075		-0.00011342		0.00000000		 0.00026450
Si		9.24247830		4.48761037		2.86404580		 0.00011342		0.00000000		-0.00026450
Si		4.14177340		4.48761037		4.62561402		 0.00011342		0.00000000		 0.00026450
Si		6.05963742		1.49587046		0.36749253		-0.00011342		0.00000000		-0.00026450
O		0.93444914		1.49587046		3.82122470		-0.00045184		0.00000000		-0.00006890
O		9.26696066		4.48761037		1.17188185		 0.00045184		0.00000000		 0.00006890
O		4.16625576		4.48761037		1.32467142		 0.00045184		0.00000000		-0.00006890
O		6.03515404		1.49587046		3.66843614		-0.00045184		0.00000000		 0.00006890
O		4.55901004		1.49587046		1.10397617		 0.00019208		0.00000000		-0.00016270
O		5.64239976		4.48761037		3.88913140		-0.00019208		0.00000000		 0.00016270
O		0.54169486		4.48761037		3.60052842		-0.00019208		0.00000000		-0.00016270
O		9.65971596		1.49587046		1.39257813		 0.00019208		0.00000000		 0.00016270
O		1.65976937		0.19865205		1.38708467		-0.00026776		 0.00039247		-0.00035381
O		8.54164042		5.78482776		3.60602188		 0.00026776		-0.00039247		 0.00035381
O		3.44093552		5.78482776		3.88363896		 0.00026776		-0.00039247		-0.00035381
O		6.76047529		0.19865205		1.10946758		-0.00026776		 0.00039247		 0.00035381
O		8.54164042		3.19039196		3.60602188		 0.00026776		 0.00039247		 0.00035381
O		1.65976937		2.79308785		1.38708467		-0.00026776		-0.00039247		-0.00035381
O		6.76047529		2.79308785		1.10946758		-0.00026776		-0.00039247		 0.00035381
O		3.44093552		3.19039196		3.88363896		 0.00026776		 0.00039247		-0.00035381
