# total energy = -20636.7601781 eV

CRYSTAL
PRIMVEC
		10.20140980		0.00000000		0.00000000
		0.00000000		5.98348390		0.00000000
		0.00000000		0.00000000		5.23087489
PRIMECORD
   28 1
Mg		0.00000000		0.00000000		0.00000000		0.00000000		0.00000000		-0.00000000
Mg		5.10070490		0.00000000		2.61543744		0.00000000		-0.00000000		0.00000000
Mg		0.00000000		2.99173991		0.00000000		0.00000000		0.00000000		0.00000000
Mg		5.10070490		2.99173991		2.61543744		0.00000000		-0.00000000		0.00000000
Mg		2.82885094		1.49587046		5.18641204		 0.00035758		-0.00000000		 0.00061123
Mg		7.37255886		4.48761037		0.04446182		-0.00035758		0.00000000		-0.00061123
Mg		2.27185396		4.48761037		2.57097460		-0.00035758		0.00000000		 0.00061123
Mg		7.92955584		1.49587046		2.65989927		 0.00035758		0.00000000		-0.00061123
Si		0.95893252		1.49587046		2.23044542		 0.00034922		0.00000000		-0.00045979
Si		9.24247830		4.48761037		3.00042845		-0.00034922		0.00000000		 0.00045979
Si		4.14177340		4.48761037		4.84588184		-0.00034922		0.00000000		-0.00045979
Si		6.05963742		1.49587046		0.38499202		 0.00034922		0.00000000		 0.00045979
O		0.93444914		1.49587046		4.00318827		-0.00022913		0.00000000		-0.00000486
O		9.26696066		4.48761037		1.22768560		 0.00022913		0.00000000		 0.00000486
O		4.16625576		4.48761037		1.38775082		 0.00022913		0.00000000		-0.00000486
O		6.03515404		1.49587046		3.84312305		-0.00022913		0.00000000		 0.00000486
O		4.55901004		1.49587046		1.15654607		-0.00043016		0.00000000		-0.00063918
O		5.64239976		4.48761037		4.07432780		 0.00043016		0.00000000		 0.00063918
O		0.54169486		4.48761037		3.77198249		 0.00043016		-0.00000000		-0.00063918
O		9.65971596		1.49587046		1.45889137		-0.00043016		0.00000000		 0.00063918
O		1.65976937		0.19865205		1.45313676		 0.00066517		-0.00032085		 0.00012305
O		8.54164042		5.78482776		3.77773711		-0.00066517		 0.00032085		-0.00012305
O		3.44093552		5.78482776		4.06857420		-0.00066517		 0.00032085		 0.00012305
O		6.76047529		0.19865205		1.16229967		 0.00066517		-0.00032085		-0.00012305
O		8.54164042		3.19039196		3.77773711		-0.00066517		-0.00032085		-0.00012305
O		1.65976937		2.79308785		1.45313676		 0.00066517		 0.00032085		 0.00012305
O		6.76047529		2.79308785		1.16229967		 0.00066517		 0.00032085		-0.00012305
O		3.44093552		3.19039196		4.06857420		-0.00066517		-0.00032085		 0.00012305
