# total energy = -20637.8792207 eV

CRYSTAL
PRIMVEC
		10.20140980		0.00000000		0.00000000
		0.00000000		5.98348390		0.00000000
		0.00000000		0.00000000		4.51757191
PRIMECORD
   28 1
Mg		0.00000000		0.00000000		0.00000000		0.00000000		-0.00000000		0.00000000
Mg		5.10070490		0.00000000		2.25878698		0.00000000		0.00000000		-0.00000000
Mg		0.00000000		2.99173991		0.00000000		0.00000000		-0.00000000		0.00000000
Mg		5.10070490		2.99173991		2.25878698		0.00000000		0.00000000		0.00000000
Mg		2.82885094		1.49587046		4.47917381		 0.00071940		0.00000000		-0.00022631
Mg		7.37255886		4.48761037		0.03839913		-0.00071940		0.00000000		 0.00022631
Mg		2.27185396		4.48761037		2.22038683		-0.00071940		0.00000000		-0.00022631
Mg		7.92955584		1.49587046		2.29718610		 0.00071940		0.00000000		 0.00022631
Si		0.95893252		1.49587046		1.92629345		 0.00059781		0.00000000		-0.00026980
Si		9.24247830		4.48761037		2.59127949		-0.00059781		0.00000000		 0.00026980
Si		4.14177340		4.48761037		4.18508042		-0.00059781		0.00000000		-0.00026980
Si		6.05963742		1.49587046		0.33249251		 0.00059781		0.00000000		 0.00026980
O		0.93444914		1.49587046		3.45729859		-0.00002219		0.00000000		-0.00085192
O		9.26696066		4.48761037		1.06027537		 0.00002219		0.00000000		 0.00085192
O		4.16625576		4.48761037		1.19851161		 0.00002219		0.00000000		-0.00085192
O		6.03515404		1.49587046		3.31906132		-0.00002219		0.00000000		 0.00085192
O		4.55901004		1.49587046		0.99883534		-0.00006115		0.00000000		-0.00033724
O		5.64239976		4.48761037		3.51873760		 0.00006115		0.00000000		 0.00033724
O		0.54169486		4.48761037		3.25762231		 0.00006115		0.00000000		-0.00033724
O		9.65971596		1.49587046		1.25995062		-0.00006115		0.00000000		 0.00033724
O		1.65976937		0.19865205		1.25498151		 0.00032551		-0.00042055		 0.00009527
O		8.54164042		5.78482776		3.26259142		-0.00032551		 0.00042055		-0.00009527
O		3.44093552		5.78482776		3.51376747		-0.00032551		 0.00042055		 0.00009527
O		6.76047529		0.19865205		1.00380546		 0.00032551		-0.00042055		-0.00009527
O		8.54164042		3.19039196		3.26259142		-0.00032551		-0.00042055		-0.00009527
O		1.65976937		2.79308785		1.25498151		 0.00032551		 0.00042055		 0.00009527
O		6.76047529		2.79308785		1.00380546		 0.00032551		 0.00042055		-0.00009527
O		3.44093552		3.19039196		3.51376747		-0.00032551		-0.00042055		 0.00009527
