# total energy = -8761.96961833 eV

CRYSTAL
PRIMVEC
		2.89559996		0.00000000		0.00000000
		-1.44779998		2.63964630		0.00000000
		0.00000000		0.00000000		12.36199958
PRIMECORD
   11 1
H		0.00000000		1.75976410		5.80643193		0.00000000		 0.00004483		-0.00006337
H		1.44779998		0.87988191		6.55556881		0.00000000		-0.00004483		 0.00006337
Mg		0.00000000		0.00000000		8.63733000		0.00000000		-0.00030234		 0.00006190
Mg		0.00000000		0.00000000		3.72467103		0.00000000		 0.00030234		-0.00006190
Mg		1.44779998		0.87988191		11.12703691		0.00000000		-0.00034208		 0.00084825
Mg		0.00000000		1.75976410		1.23496412		0.00000000		 0.00034208		-0.00084825
O		1.44779998		0.87988191		2.46992794		0.00000000		-0.00041353		-0.00063411
O		0.00000000		1.75976410		9.89207280		0.00000000		 0.00041353		 0.00063411
O		0.00000000		1.75976410		4.81623491		0.00000000		 0.00083871		-0.00006156
O		1.44779998		0.87988191		7.54576497		0.00000000		-0.00083871		 0.00006156
O		0.00000000		0.00000000		0.00000000		0.00000000		0.00000000		0.00000000
