# total energy = -8761.44212832 eV

CRYSTAL
PRIMVEC
		3.35280006		0.00000000		0.00000000
		-1.67640003		2.63964608		0.00000000
		0.00000000		0.00000000		12.36200182
PRIMECORD
   11 1
H		0.00000000		1.75976405		5.80643212		0.00000000		 0.00004793		 0.00009205
H		1.67640003		0.87988203		6.55556903		0.00000000		-0.00004793		-0.00009205
Mg		0.00000000		0.00000000		8.63733030		0.00000000		 0.00014986		 0.00008499
Mg		0.00000000		0.00000000		3.72467119		0.00000000		-0.00014986		-0.00008499
Mg		1.67640003		0.87988203		11.12703715		0.00000000		 0.00052491		 0.00011892
Mg		0.00000000		1.75976405		1.23496400		0.00000000		-0.00052491		-0.00011892
O		1.67640003		0.87988203		2.46992801		0.00000000		-0.00022154		-0.00007961
O		0.00000000		1.75976405		9.89207314		0.00000000		 0.00022154		 0.00007961
O		0.00000000		1.75976405		4.81623493		0.00000000		 0.00040067		 0.00013721
O		1.67640003		0.87988203		7.54576522		0.00000000		-0.00040067		-0.00013721
O		0.00000000		0.00000000		0.00000000		0.00000000		0.00000000		0.00000000
