# total energy = -8762.04620321 eV

CRYSTAL
PRIMVEC
		3.12419975		0.00000000		0.00000000
		-1.56209987		2.63964574		0.00000000
		0.00000000		0.00000000		12.36199914
PRIMECORD
   11 1
H		0.00000000		1.75976393		5.80643145		0.00000000		-0.00005581		-0.00013527
H		1.56209987		0.87988181		6.55556831		0.00000000		 0.00005581		 0.00013527
Mg		0.00000000		0.00000000		8.63732945		0.00000000		 0.00051272		-0.00050809
Mg		0.00000000		0.00000000		3.72467062		0.00000000		-0.00051272		 0.00050809
Mg		1.56209987		0.87988181		11.12703609		0.00000000		 0.00021883		 0.00027691
Mg		0.00000000		1.75976393		1.23496398		0.00000000		-0.00021883		-0.00027691
O		1.56209987		0.87988181		2.46992765		0.00000000		 0.00030960		 0.00006939
O		0.00000000		1.75976393		9.89207211		-0.00000000		-0.00030960		-0.00006939
O		0.00000000		1.75976393		4.81623446		0.00000000		-0.00024595		-0.00007784
O		1.56209987		0.87988181		7.54576436		0.00000000		 0.00024595		 0.00007784
O		0.00000000		0.00000000		0.00000000		0.00000000		0.00000000		0.00000000
