# total energy = -8761.71257747 eV

CRYSTAL
PRIMVEC
		2.81940003		0.00000000		0.00000000
		-1.40970001		2.63964636		0.00000000
		0.00000000		0.00000000		12.36200057
PRIMECORD
   11 1
H		0.00000000		1.75976405		5.80643200		0.00000000		 0.00006390		 0.00007409
H		1.40970001		0.87988203		6.55556914		0.00000000		-0.00006390		-0.00007409
Mg		0.00000000		0.00000000		8.63733010		0.00000000		-0.00071283		 0.00006271
Mg		0.00000000		0.00000000		3.72467103		0.00000000		 0.00071283		-0.00006271
Mg		1.40970001		0.87988203		11.12703711		0.00000000		-0.00033780		 0.00026891
Mg		0.00000000		1.75976405		1.23496403		0.00000000		 0.00033780		-0.00026891
O		1.40970001		0.87988203		2.46992806		0.00000000		-0.00054201		-0.00036955
O		0.00000000		1.75976405		9.89207307		0.00000000		 0.00054201		 0.00036955
O		0.00000000		1.75976405		4.81623502		0.00000000		 0.00077654		-0.00006013
O		1.40970001		0.87988203		7.54576499		0.00000000		-0.00077654		 0.00006013
O		0.00000000		0.00000000		0.00000000		0.00000000		0.00000000		0.00000000
