# total energy = -12330.3033485 eV

CRYSTAL
PRIMVEC
		2.46200010		0.00000000		0.00000000
		0.00000000		8.05300044		0.00000000
		0.00000000		0.00000000		5.64990123
PRIMECORD
   20 1
O		0.00000000		0.58786900		1.41247506		0.00000000		 0.00021626		 0.00000785
O		0.00000000		7.46513119		4.23742518		0.00000000		-0.00021626		-0.00000785
O		1.23100005		4.61436922		1.41247506		0.00000000		 0.00021597		 0.00000751
O		1.23100005		3.43863122		4.23742518		0.00000000		-0.00021597		-0.00000751
O		0.00000000		2.92323907		2.49160614		0.00000000		-0.00002793		 0.00064493
O		0.00000000		5.12976112		3.15829410		0.00000000		 0.00002793		-0.00064493
O		0.00000000		5.12976112		5.31655626		0.00000000		 0.00002995		 0.00064242
O		0.00000000		2.92323907		0.33334398		0.00000000		-0.00002995		-0.00064242
O		1.23100005		6.94974028		2.49160614		0.00000000		-0.00002814		 0.00064483
O		1.23100005		1.10326114		3.15829410		0.00000000		 0.00002814		-0.00064483
O		1.23100005		1.10326114		5.31655626		0.00000000		 0.00003030		 0.00064223
O		1.23100005		6.94974028		0.33334398		-0.00000000		-0.00003030		-0.00064223
Si		0.00000000		0.00000000		0.00000000		0.00000000		0.00000000		0.00000000
Si		0.00000000		0.00000000		2.82495012		0.00000000		0.00000000		0.00000000
Si		1.23100005		4.02650022		0.00000000		0.00000000		0.00000000		0.00000000
Si		1.23100005		4.02650022		2.82495012		0.00000000		0.00000000		0.00000000
Mg		0.00000000		2.03740898		4.23742518		0.00000000		-0.00065673		 0.00000109
Mg		0.00000000		6.01559121		1.41247506		0.00000000		 0.00065673		-0.00000109
Mg		1.23100005		6.06391018		4.23742518		0.00000000		-0.00065635		 0.00000105
Mg		1.23100005		1.98909099		1.41247506		0.00000000		 0.00065635		-0.00000105
