# total energy = -12325.1713506 eV

CRYSTAL
PRIMVEC
		2.46200010		0.00000000		0.00000000
		0.00000000		8.05300044		0.00000000
		0.00000000		0.00000000		5.49720060
PRIMECORD
   20 1
O		0.00000000		0.58786900		1.37430003		0.00000000		 0.00022536		 0.00000021
O		0.00000000		7.46513119		4.12290008		-0.00000000		-0.00022536		-0.00000021
O		1.23100005		4.61436922		1.37430003		0.00000000		 0.00022550		-0.00000546
O		1.23100005		3.43863122		4.12290008		-0.00000000		-0.00022550		 0.00000546
O		0.00000000		2.92323907		2.42426502		0.00000000		-0.00017317		 0.00073237
O		0.00000000		5.12976112		3.07293508		0.00000000		 0.00017317		-0.00073237
O		0.00000000		5.12976112		5.17286532		0.00000000		 0.00017173		 0.00073441
O		0.00000000		2.92323907		0.32433503		0.00000000		-0.00017173		-0.00073441
O		1.23100005		6.94974028		2.42426502		-0.00000000		-0.00017218		 0.00073356
O		1.23100005		1.10326114		3.07293508		0.00000000		 0.00017218		-0.00073356
O		1.23100005		1.10326114		5.17286532		0.00000000		 0.00017246		 0.00073341
O		1.23100005		6.94974028		0.32433503		0.00000000		-0.00017246		-0.00073341
Si		0.00000000		0.00000000		0.00000000		0.00000000		0.00000000		0.00000000
Si		0.00000000		0.00000000		2.74860005		0.00000000		0.00000000		0.00000000
Si		1.23100005		4.02650022		0.00000000		0.00000000		0.00000000		0.00000000
Si		1.23100005		4.02650022		2.74860005		0.00000000		0.00000000		0.00000000
Mg		0.00000000		2.03740898		4.12290008		0.00000000		-0.00030393		-0.00000012
Mg		0.00000000		6.01559121		1.37430003		0.00000000		 0.00030393		 0.00000012
Mg		1.23100005		6.06391018		4.12290008		0.00000000		-0.00030426		-0.00000048
Mg		1.23100005		1.98909099		1.37430003		-0.00000000		 0.00030426		 0.00000048
