# total energy = -49432.756879 eV	

CRYSTAL	
PRIMVEC	
		18.10919733		0.00000000		0.00005470	
		0.00000000		8.66534236		0.00000000	
		0.00001823		0.00000000		5.10122857	
PRIMCOORD
   80 1	
Mg		6.81909255		5.69167873		4.35850005		-0.00018274		-0.00047808		-0.00000877	
Mg		11.29012484		2.97366728		0.74277228		 0.00018171		 0.00049176		 0.00000711	
Mg		2.23687360		2.97376574		1.80860961		 0.00019017		 0.00048035		-0.00001296	
Mg		15.87234197		5.69158210		3.29266272		-0.00019125		-0.00046672		 0.00001498	
Mg		11.29013031		1.35900937		3.29338475		 0.00018173		-0.00049117		 0.00000710	
Mg		6.81908525		7.30634940		1.80788759		-0.00018269		 0.00047794		-0.00000876	
Mg		15.87233468		7.30644603		0.74205026		-0.00019116		 0.00046672		 0.00001513	
Mg		2.23688089		1.35891091		4.35922207		 0.00019011		-0.00048007		-0.00001307	
Mg		6.82871045		4.18736147		1.77214908		 0.00015262		-0.00036732		-0.00015350	
Mg		11.28050693		4.47798454		3.32912507		-0.00015897		 0.00038233		 0.00014889	
Mg		2.22716088		4.47812129		4.32364585		-0.00015689		 0.00036759		-0.00015239	
Mg		15.88205469		4.18722472		0.77762648		 0.00015064		-0.00035251		 0.00015718	
Mg		11.28049964		8.52004359		0.77851261		-0.00015920		-0.00038235		 0.00014867	
Mg		6.82871775		0.14531518		4.32276155		 0.00015274		 0.00036726		-0.00015347	
Mg		15.88206198		0.14545193		3.32823712		 0.00015073		 0.00035245		 0.00015708	
Mg		2.22715541		8.51990684		1.77303338		-0.00015712		-0.00036754		-0.00015217	
Si		4.90821951		2.97657726		0.20694272		 0.00041304		 0.00050559		-0.00003260	
Si		13.20094136		5.68874686		4.89432596		-0.00020857		-0.00039040		 0.00004636	
Si		4.14718870		5.68875963		2.75787791		-0.00012577		-0.00036496		-0.00007747	
Si		13.96197216		2.97656268		2.34339807		 0.00032805		 0.00048163		 0.00006506	
Si		13.20093224		7.30928309		2.34371532		-0.00020404		 0.00038485		 0.00004721	
Si		4.90822680		1.35609939		2.75755518		 0.00041228		-0.00050323		-0.00003307	
Si		13.96197946		1.35611397		4.89401053		 0.00032862		-0.00048004		 0.00006523	
Si		4.14717958		7.30927032		0.20726544		-0.00012278		 0.00036049		-0.00007804	
Si		8.56221105		2.92762348		4.10448155		-0.00005667		 0.00027318		-0.00019561	
Si		9.54704828		5.73770794		0.99679990		-0.00010305		-0.00019253		 0.00015719	
Si		0.49193544		5.73753108		1.55391831		-0.00010130		-0.00018893		-0.00017150	
Si		17.61732571		2.92780034		3.54734308		-0.00006029		 0.00027138		 0.00021061	
Si		9.54705557		7.26032019		3.54741236		-0.00010565		 0.00018972		 0.00015612	
Si		8.56220375		1.40505317		1.55387091		-0.00005840		-0.00027387		-0.00019634	
Si		17.61731841		1.40487813		0.99673061		-0.00006213		-0.00027279		 0.00021155	
Si		0.49194091		7.26049523		4.10453078		-0.00010187		 0.00018831		-0.00017148	
O		3.30217670		2.95467761		0.10659194		 0.00017828		-0.00021827		 0.00007703	
O		14.80706986		5.71067569		4.99468222		-0.00029845		 0.00020858		-0.00008200	
O		5.75333179		5.71079785		2.65677410		-0.00030719		 0.00019851		 0.00008114	
O		12.35591294		2.95455727		2.44449823		 0.00018916		-0.00020810		-0.00007688	
O		14.80706439		7.28735244		2.44407158		-0.00030104		-0.00020827		-0.00008219	
O		3.30218217		1.37799904		2.65720440		 0.00017873		 0.00021777		 0.00007703	
O		12.35592024		1.37812120		4.99511069		 0.00018874		 0.00020747		-0.00007689	
O		5.75332632		7.28723027		0.10616164		-0.00030889		-0.00019812		 0.00008130	
O		5.61266056		4.39938937		0.15045324		 0.00017888		 0.00012362		 0.00005426	
O		12.49657506		4.26598946		4.95081909		-0.00025251		-0.00023867		-0.00004564	
O		3.44317248		4.26584724		2.70186066		-0.00025660		-0.00025217		 0.00001696	
O		14.66606131		4.39953341		2.39941349		 0.00018264		 0.00013587		-0.00002590	
O		12.49656959		0.06668720		2.40020663		-0.00025482		 0.00024259		-0.00004544	
O		5.61266603		8.59863876		2.70106570		 0.00017945		-0.00012482		 0.00005431	
O		14.66606861		8.59849472		4.95002595		 0.00018282		-0.00013630		-0.00002598	
O		3.44316701		0.06682759		0.15124820		-0.00025837		 0.00025524		 0.00001680	
O		5.51107540		1.89418072		4.22051453		 0.00004348		 0.00036270		-0.00019272	
O		12.59814381		6.77117258		0.88076145		-0.00007090		-0.00036390		 0.00018162	
O		3.54420153		6.77091184		1.67005705		-0.00005399		-0.00034929		-0.00020221	
O		14.56501768		1.89444146		3.43121528		 0.00002725		 0.00034830		 0.00021226	
O		12.59815110		6.22685555		3.43137391		-0.00007052		 0.00036523		 0.00018087	
O		5.51106993		2.43849593		1.66990207		 0.00004346		-0.00036362		-0.00019190	
O		14.56501039		2.43823519		0.88060282		 0.00002733		-0.00034908		 0.00021133	
O		3.54420882		6.22711628		4.22066769		-0.00005363		 0.00035042		-0.00020118	
O		10.17876518		2.94176864		4.12541485		 0.00019039		-0.00025554		 0.00018398	
O		7.93042485		5.72358466		0.97585748		-0.00008986		 0.00024958		-0.00018204	
O		16.98438354		5.72329475		1.57434839		-0.00009121		 0.00023843		 0.00017351	
O		1.12480650		2.94205855		3.52692576		 0.00019203		-0.00024461		-0.00017558	
O		7.93043215		7.27444347		3.52646994		-0.00008853		-0.00024940		-0.00018200	
O		10.17875789		1.39090801		1.57480239		 0.00019157		 0.00025509		 0.00018404	
O		1.12479920		1.39061628		0.97631330		 0.00019308		 0.00024444		-0.00017565	
O		16.98439083		7.27473338		4.12495903		-0.00009091		-0.00023832		 0.00017363	
O		7.84126549		4.19400375		3.47527715		-0.00000617		 0.00013334		 0.00021376	
O		10.26793549		4.47136778		1.62598607		 0.00006874		-0.00021824		-0.00017815	
O		1.21381088		4.47129485		0.92535025		 0.00009619		-0.00020547		 0.00014468	
O		16.89538827		4.19407851		4.17593120		-0.00003220		 0.00011837		-0.00018105	
O		10.26794096		8.52665852		4.17659671		 0.00007009		 0.00022027		-0.00017734	
O		7.84125819		0.13867290		0.92466468		-0.00000533		-0.00013222		 0.00021435	
O		16.89538098		0.13859814		1.62532056		-0.00003125		-0.00011702		-0.00018173	
O		1.21381818		8.52673328		3.47596271		 0.00009651		 0.00020579		 0.00014455	
O		8.07429234		1.62736083		3.14874236		-0.00054166		 0.00004057		 0.00000366	
O		10.03492140		7.03799064		1.95252815		 0.00056211		-0.00003230		-0.00000105	
O		0.97992161		7.03774814		0.59811896		 0.00056273		-0.00001691		-0.00000625	
O		17.12929213		1.62760333		4.50315519		-0.00054227		 0.00002484		 0.00000407	
O		10.03492687		5.96003749		4.50314061		 0.00056201		 0.00003291		-0.00000126	
O		8.07428687		2.70531582		0.59813172		-0.00054171		-0.00004070		 0.00000371	
O		17.12928483		2.70507332		1.95254273		-0.00054232		-0.00002462		 0.00000420	
O		0.97992891		5.96027998		3.14873142		 0.00056273		 0.00001701		-0.00000625	
