# total energy = -92497.0506905 eV

CRYSTAL
PRIMVEC
		18.49999462		1.47999586		0.00000000
		1.43200201		17.89999731		0.00000000
		0.00000000		0.00000000		5.27000644
PRIMECORD
   164 1
Mg		2.64844001		3.23539770		2.00259985		 0.00007200		-0.00000334		-0.00049636
Mg		17.28355848		16.14458989		3.26739917		-0.00007200		 0.00000334		 0.00049636
Mg		8.03355931		15.40459011		4.63759936		-0.00007200		 0.00000334		-0.00049636
Mg		11.89843918		3.97539749		0.63239966		 0.00007200		-0.00000334		 0.00049636
Mg		17.05443890		13.28059329		3.26739917		-0.00020444		 0.00036013		 0.00002605
Mg		2.87755959		6.09939616		2.00259985		 0.00020444		-0.00036013		-0.00002605
Mg		12.12756062		6.83939595		0.63239966		 0.00020444		-0.00036013		 0.00002605
Mg		7.80443973		12.54059351		4.63759936		-0.00020444		 0.00036013		-0.00002605
Mg		2.51956002		1.62439869		4.58490078		-0.00002105		 0.00020990		-0.00004498
Mg		17.41243847		17.75559076		0.68510010		 0.00002105		-0.00020990		 0.00004498
Mg		8.16243931		17.01559098		1.94989941		 0.00002105		-0.00020990		-0.00004498
Mg		11.76955919		2.36439847		3.32009961		-0.00002105		 0.00020990		 0.00004498
Mg		16.92555890		11.66959428		0.68510010		 0.00009691		-0.00004036		-0.00009365
Mg		3.00643959		7.71039518		4.58490078		-0.00009691		 0.00004036		 0.00009365
Mg		12.25644061		8.45039682		3.32009961		-0.00009691		 0.00004036		-0.00009365
Mg		7.67555973		10.92959449		1.94989941		 0.00009691		-0.00004036		 0.00009365
Mg		3.80835812		17.73439070		2.00259985		 0.00012213		-0.00012602		-0.00055775
Mg		16.12364037		1.64560061		3.26739917		-0.00012213		 0.00012602		 0.00055775
Mg		6.87363935		0.90560083		4.63759936		-0.00012213		 0.00012602		-0.00055775
Mg		13.05835914		18.47439048		0.63239966		 0.00012213		-0.00012602		 0.00055775
Mg		16.78236056		9.87959455		3.26739917		-0.00028984		 0.00007342		 0.00039181
Mg		3.14963979		9.50039305		2.00259985		 0.00028984		-0.00007342		-0.00039181
Mg		12.39963896		10.24039469		0.63239966		 0.00028984		-0.00007342		 0.00039181
Mg		7.53235953		9.13959476		4.63759936		-0.00028984		 0.00007342		-0.00039181
Mg		2.76299980		4.66739786		4.58490078		 0.00009600		-0.00002668		-0.00045363
Mg		17.16899869		14.71259345		0.68510010		-0.00009600		 0.00002668		 0.00045363
Mg		7.91899952		13.97259366		1.94989941		-0.00009600		 0.00002668		-0.00045363
Mg		12.01299897		5.40739765		3.32009961		 0.00009600		-0.00002668		 0.00045363
Si		1.72923908		14.72239266		1.52829964		-0.00004155		 0.00012844		 0.00001469
Si		18.20275942		4.65759865		3.74169938		 0.00004155		-0.00012844		-0.00001469
Si		8.95276025		3.91759887		4.16329915		 0.00004155		-0.00012844		 0.00001469
Si		10.97923824		15.46239244		1.10669987		-0.00004155		 0.00012844		-0.00001469
Si		18.40324044		7.16359753		3.74169938		-0.00001541		-0.00014551		 0.00005381
Si		1.52875991		12.21639378		1.52829964		 0.00001541		 0.00014551		-0.00005381
Si		10.77875908		12.95639356		1.10669987		 0.00001541		 0.00014551		 0.00005381
Si		9.15323942		6.42359775		4.16329915		-0.00001541		-0.00014551		-0.00005381
Si		1.87243928		16.51239053		4.16329915		-0.00026803		-0.00039888		-0.00018276
Si		18.05955922		2.86759892		1.10669987		 0.00026803		 0.00039888		 0.00018276
Si		8.80956005		2.12759914		1.52829964		 0.00026803		 0.00039888		-0.00018276
Si		11.12243845		17.25239032		3.74169938		-0.00026803		-0.00039888		 0.00018276
Si		18.54644064		8.95359541		1.10669987		 0.00004222		-0.00030984		 0.00010702
Si		1.38555971		10.42639405		4.16329915		-0.00004222		 0.00030984		-0.00010702
Si		10.63555887		11.16639383		3.74169938		-0.00004222		 0.00030984		 0.00010702
Si		9.29643962		8.21359562		1.52829964		 0.00004222		-0.00030984		-0.00010702
Si		5.38743918		16.79359067		0.21079989		-0.00029563		 0.00013718		 0.00033782
Si		14.54455931		2.58639878		5.05919913		 0.00029563		-0.00013718		-0.00033782
Si		5.29456014		1.84639900		2.84579940		 0.00029563		-0.00013718		 0.00033782
Si		14.63744021		17.53359046		2.42419962		-0.00029563		 0.00013718		-0.00033782
Si		15.03143888		8.67239527		5.05919913		 0.00036701		-0.00019644		-0.00003286
Si		4.90055961		10.70759419		0.21079989		-0.00036701		 0.00019644		 0.00003286
Si		14.15056064		11.44759397		2.42419962		-0.00036701		 0.00019644		-0.00003286
Si		5.78143971		7.93239548		2.84579940		 0.00036701		-0.00019644		 0.00003286
Si		5.24423898		15.00359094		2.84579940		 0.00018964		-0.00014052		 0.00030116
Si		14.68775951		4.37639851		2.42419962		-0.00018964		 0.00014052		-0.00030116
Si		5.43776034		3.63639873		0.21079989		-0.00018964		 0.00014052		 0.00030116
Si		14.49424001		15.74359258		5.05919913		 0.00018964		-0.00014052		-0.00030116
Si		14.88823868		6.88239739		2.42419962		-0.00019248		 0.00007172		-0.00013672
Si		5.04375981		12.49759206		2.84579940		 0.00019248		-0.00007172		 0.00013672
Si		14.29375898		13.23759370		5.05919913		 0.00019248		-0.00007172		-0.00013672
Si		5.63823951		6.14239761		0.21079989		-0.00019248		 0.00007172		 0.00013672
O		1.21023926		1.34179919		1.05399943		 0.00032667		 0.00067084		-0.00043011
O		18.72175923		18.03819026		4.21599959		-0.00032667		-0.00067084		 0.00043011
O		9.47175821		17.29819048		3.68900080		-0.00032667		-0.00067084		-0.00043011
O		10.46024029		2.08179898		1.58100008		 0.00032667		 0.00067084		 0.00043011
O		18.20623925		11.59419420		4.21599959		-0.00000368		 0.00041338		 0.00000333
O		1.72575924		7.78579525		1.05399943		 0.00000368		-0.00041338		-0.00000333
O		10.97576027		8.52579504		1.58100008		 0.00000368		-0.00041338		 0.00000333
O		8.95623822		10.85419442		3.68900080		-0.00000368		 0.00041338		-0.00000333
O		1.36775967		3.31079778		3.68900080		 0.00002314		-0.00007252		-0.00038693
O		18.56423882		16.06919167		1.58100008		-0.00002314		 0.00007252		 0.00038693
O		9.31423966		15.32919189		1.05399943		-0.00002314		 0.00007252		-0.00038693
O		10.61776069		4.05079757		4.21599959		 0.00002314		-0.00007252		 0.00038693
O		18.36375966		13.56319279		1.58100008		 0.00011588		 0.00027373		-0.00043399
O		1.56824069		5.81679666		3.68900080		-0.00011588		-0.00027373		 0.00043399
O		10.81823986		6.55679645		4.21599959		-0.00011588		-0.00027373		-0.00043399
O		9.11375863		12.82319301		1.05399943		 0.00011588		 0.00027373		 0.00043399
O		2.18399840		13.51379216		1.05399943		-0.00034436		-0.00010849		-0.00031056
O		17.74800009		5.86619729		4.21599959		 0.00034436		 0.00010849		 0.00031056
O		8.49799907		5.12619750		3.68900080		 0.00034436		 0.00010849		-0.00031056
O		11.43399943		14.25379195		1.58100008		-0.00034436		-0.00010849		 0.00031056
O		1.46799925		4.56379722		1.05399943		-0.00001378		-0.00008954		-0.00002721
O		18.46399924		14.81619223		4.21599959		 0.00001378		 0.00008954		 0.00002721
O		9.21399822		14.07619245		3.68900080		 0.00001378		 0.00008954		-0.00002721
O		10.71800028		5.30379886		1.58100008		-0.00001378		-0.00008954		 0.00002721
O		1.10999968		0.08879975		3.68900080		 0.00013175		-0.00063191		 0.00012827
O		17.39000051		1.39119982		1.58100008		-0.00013175		 0.00063191		-0.00012827
O		8.13999949		0.65120003		1.05399943		-0.00013175		 0.00063191		 0.00012827
O		10.36000070		0.82879954		4.21599959		 0.00013175		-0.00063191		-0.00012827
O		18.10599966		10.34119476		1.58100008		-0.00010576		 0.00013822		-0.00032609
O		1.82600068		9.03879469		3.68900080		 0.00010576		-0.00013822		 0.00032609
O		11.07599985		9.77879448		4.21599959		 0.00010576		-0.00013822		-0.00032609
O		8.85600050		9.60119498		1.05399943		-0.00010576		 0.00013822		 0.00032609
O		2.17083814		15.64699058		0.26350032		-0.00012408		-0.00043508		-0.00038372
O		17.76116035		3.73299887		5.00650055		 0.00012408		 0.00043508		 0.00038372
O		8.51115933		2.99299909		2.89849983		 0.00012408		 0.00043508		-0.00038372
O		11.42083916		16.38699037		2.37149919		-0.00012408		-0.00043508		 0.00038372
O		18.10483972		8.02899563		5.00650055		-0.00026108		-0.00016525		-0.00008934
O		1.82716063		11.35099383		0.26350032		 0.00026108		 0.00016525		 0.00008934
O		11.07715980		12.09099361		2.37149919		 0.00026108		 0.00016525		-0.00008934
O		8.85483870		7.28899584		2.89849983		-0.00026108		-0.00016525		 0.00008934
O		2.17083814		15.64699058		2.84579940		-0.00001711		-0.00033922		-0.00017597
O		17.76116035		3.73299887		2.42419962		 0.00001711		 0.00033922		 0.00017597
O		8.51115933		2.99299909		0.21079989		 0.00001711		 0.00033922		-0.00017597
O		11.42083916		16.38699037		5.05919913		-0.00001711		-0.00033922		 0.00017597
O		18.10483972		8.02899563		2.42419962		 0.00055175		-0.00035479		 0.00006058
O		1.82716063		11.35099383		2.84579940		-0.00055175		 0.00035479		-0.00006058
O		11.07715980		12.09099361		5.05919913		-0.00055175		 0.00035479		 0.00006058
O		8.85483870		7.28899584		0.21079989		 0.00055175		-0.00035479		-0.00006058
O		3.77275990		3.50319817		0.26350032		-0.00029696		-0.00032552		 0.00031012
O		16.15923859		15.87679128		5.00650055		 0.00029696		 0.00032552		-0.00031012
O		6.90923943		15.13679150		2.89849983		 0.00029696		 0.00032552		 0.00031012
O		13.02275907		4.24319796		2.37149919		-0.00029696		-0.00032552		-0.00031012
O		15.95875943		13.37079240		5.00650055		 0.00009097		-0.00019727		 0.00028547
O		3.97323907		6.00919705		0.26350032		-0.00009097		 0.00019727		-0.00028547
O		13.22324009		6.74919684		2.37149919		-0.00009097		 0.00019727		 0.00028547
O		6.70876026		12.63079262		2.89849983		 0.00009097		-0.00019727		-0.00028547
O		3.61523949		1.53419958		2.95120027		 0.00013312		-0.00037405		-0.00034588
O		16.31675900		17.84579173		2.31880061		-0.00013312		 0.00037405		 0.00034588
O		7.06675983		17.10579009		0.31620076		-0.00013312		 0.00037405		-0.00034588
O		12.86524051		2.27419937		4.95380012		 0.00013312		-0.00037405		 0.00034588
O		15.80123902		11.40179381		2.31880061		-0.00035553		 0.00028292		 0.00018497
O		4.13075947		7.97819564		2.95120027		 0.00035553		-0.00028292		-0.00018497
O		13.38076050		8.71819543		4.95380012		 0.00035553		-0.00028292		 0.00018497
O		6.55123985		10.66179403		0.31620076		-0.00035553		 0.00028292		-0.00018497
O		3.51499991		0.28120014		0.26350032		-0.00036651		 0.00003454		 0.00035679
O		14.98500029		1.19879943		5.00650055		 0.00036651		-0.00003454		-0.00035679
O		5.73499926		0.45879964		2.89849983		 0.00036651		-0.00003454		 0.00035679
O		12.76499907		1.02119993		2.37149919		-0.00036651		 0.00003454		-0.00035679
O		15.70099944		10.14879437		5.00650055		-0.00008570		-0.00004518		 0.00032632
O		4.23099906		9.23119508		0.26350032		 0.00008570		 0.00004518		-0.00032632
O		13.48100008		9.97119487		2.37149919		 0.00008570		 0.00004518		 0.00032632
O		6.45100027		9.40879459		2.89849983		-0.00008570		-0.00004518		-0.00032632
O		4.58899863		13.70619255		2.37149919		-0.00062699		 0.00028518		-0.00027383
O		15.34299986		5.67379876		2.89849983		 0.00062699		-0.00028518		 0.00027383
O		6.09300069		4.93379711		5.00650055		 0.00062699		-0.00028518		-0.00027383
O		13.83899966		14.44619234		0.26350032		-0.00062699		 0.00028518		 0.00027383
O		3.87299948		4.75619761		2.89849983		 0.00003214		 0.00018387		 0.00045978
O		16.05899901		14.62379370		2.37149919		-0.00003214		-0.00018387		-0.00045978
O		6.80899984		13.88379206		0.26350032		-0.00003214		-0.00018387		 0.00045978
O		13.12300051		5.49619740		5.00650055		 0.00003214		 0.00018387		-0.00045978
O		4.94583826		15.86899089		1.58100008		-0.00044063		-0.00025615		 0.00028396
O		14.98616023		3.51099856		3.68900080		 0.00044063		 0.00025615		-0.00028396
O		5.73615921		2.77099878		4.21599959		 0.00044063		 0.00025615		 0.00028396
O		14.19583929		16.60899067		1.05399943		-0.00044063		-0.00025615		-0.00028396
O		15.32983960		7.80699532		3.68900080		-0.00006755		-0.00011696		-0.00032735
O		4.60216075		11.57299413		1.58100008		 0.00006755		 0.00011696		 0.00032735
O		13.85215806		12.31299392		1.05399943		 0.00006755		 0.00011696		-0.00032735
O		6.07984043		7.06699553		4.21599959		-0.00006755		-0.00011696		 0.00032735
O		4.94583826		15.86899089		4.21599959		 0.00050953		 0.00004121		 0.00022083
O		14.98616023		3.51099856		1.05399943		-0.00050953		-0.00004121		-0.00022083
O		5.73615921		2.77099878		1.58100008		-0.00050953		-0.00004121		 0.00022083
O		14.19583929		16.60899067		3.68900080		 0.00050953		 0.00004121		-0.00022083
O		15.32983960		7.80699532		1.05399943		 0.00013197		-0.00011327		 0.00021301
O		4.60216075		11.57299413		4.21599959		-0.00013197		 0.00011327		-0.00021301
O		13.85215806		12.31299392		3.68900080		-0.00013197		 0.00011327		 0.00021301
O		6.07984043		7.06699553		1.58100008		 0.00013197		-0.00011327		-0.00021301
H		17.94500128		1.43560062		0.79049911		-0.00031611		 0.00005961		-0.00002085
H		0.55499891		0.04440080		4.47949991		 0.00031611		-0.00005961		 0.00002085
H		9.80499808		0.78440059		3.42550048		 0.00031611		-0.00005961		-0.00002085
H		8.69500026		0.69560084		1.84450040		-0.00031611		 0.00005961		 0.00002085
H		1.27099806		8.99439575		4.47949991		-0.00000054		-0.00012124		-0.00003838
H		18.66100043		10.38559556		0.79049911		 0.00000054		 0.00012124		 0.00003838
H		9.41099941		9.64559578		1.84450040		 0.00000054		 0.00012124		-0.00003838
H		10.52099908		9.73439553		3.42550048		-0.00000054		-0.00012124		 0.00003838
