# total energy = -92487.513428 eV

CRYSTAL
PRIMVEC
		18.50000672		-2.96000932		0.00000000
		-2.86399089		17.89998989		0.00000000
		0.00000000		0.00000000		5.26999728
PRIMECORD
   164 1
Mg		1.91812036		2.65819857		2.00259972		-0.00043839		 0.00018287		 0.00115682
Mg		13.71788048		12.28179137		3.26739944		 0.00043839		-0.00018287		-0.00115682
Mg		4.46788087		13.76179041		4.63760023		 0.00043839		-0.00018287		 0.00115682
Mg		11.16811997		1.17819766		0.63240080		-0.00043839		 0.00018287		-0.00115682
Mg		14.17612164		9.41779299		3.26739944		-0.00094349		 0.00023165		-0.00175134
Mg		1.45987920		5.52219508		2.00259972		 0.00094349		-0.00023165		 0.00175134
Mg		10.70988068		4.04219604		0.63240080		 0.00094349		-0.00023165		-0.00175134
Mg		4.92612016		10.89779390		4.63760023		-0.00094349		 0.00023165		 0.00175134
Mg		2.17588067		1.04719854		4.58489970		 0.00078598		 0.00082526		-0.00051727
Mg		13.46012205		13.89279140		0.68509946		-0.00078598		-0.00082526		 0.00051727
Mg		4.21012244		15.37279044		1.94989918		-0.00078598		-0.00082526		-0.00051727
Mg		11.42588028		-0.43280050		3.32009998		 0.00078598		 0.00082526		 0.00051727
Mg		14.43388007		7.80679483		0.68509946		-0.00087599		-0.00127517		 0.00015344
Mg		1.20212077		7.13319510		4.58489970		 0.00087599		 0.00127517		-0.00015344
Mg		10.45212038		5.65319607		3.32009998		 0.00087599		 0.00127517		 0.00015344
Mg		5.18388046		9.28679387		1.94989918		-0.00087599		-0.00127517		-0.00015344
Mg		-0.40171863		17.15719132		2.00259972		-0.00013759		-0.00035662		-0.00055430
Mg		16.03771947		-2.21719950		3.26739944		 0.00013759		 0.00035662		 0.00055430
Mg		6.78771986		-0.73720046		4.63760023		 0.00013759		 0.00035662		-0.00055430
Mg		8.84828098		15.67719040		0.63240080		-0.00013759		-0.00035662		 0.00055430
Mg		14.72028104		6.01679585		3.26739944		 0.00008636		-0.00123609		-0.00080067
Mg		0.91572168		8.92319409		2.00259972		-0.00008636		 0.00123609		 0.00080067
Mg		10.16572129		7.44319505		0.63240080		-0.00008636		 0.00123609		-0.00080067
Mg		5.47028143		7.49679488		4.63760023		 0.00008636		-0.00123609		 0.00080067
Mg		1.68900072		4.09019776		4.58489970		 0.00121958		-0.00135813		-0.00044574
Mg		13.94700012		10.84979218		0.68509946		-0.00121958		 0.00135813		 0.00044574
Mg		4.69700051		12.32979309		1.94989918		-0.00121958		 0.00135813		-0.00044574
Mg		10.93900033		2.61019872		3.32009998		 0.00121958		-0.00135813		 0.00044574
Si		-1.79347813		14.58919199		1.52830052		 0.00160867		-0.00034512		-0.00002233
Si		17.42948085		0.35079795		3.74170051		-0.00160867		 0.00034512		 0.00002233
Si		8.17947936		1.83079886		4.16329917		-0.00160867		 0.00034512		-0.00002233
Si		7.45652148		13.10919108		1.10669999		 0.00160867		-0.00034512		 0.00002233
Si		17.02852100		2.85679653		3.74170051		 0.00043784		-0.00019201		-0.00077729
Si		-1.39251829		12.08319341		1.52830052		-0.00043784		 0.00019201		 0.00077729
Si		7.85748132		10.60319250		1.10669999		-0.00043784		 0.00019201		-0.00077729
Si		7.77852139		4.33679744		4.16329917		 0.00043784		-0.00019201		 0.00077729
Si		-2.07987910		16.37919098		4.16329917		-0.00014227		 0.00058207		 0.00058152
Si		17.71587994		-1.43920104		1.10669999		 0.00014227		-0.00058207		-0.00058152
Si		8.46588033		0.04079987		1.52830052		 0.00014227		-0.00058207		 0.00058152
Si		7.17012051		14.89919007		3.74170051		-0.00014227		 0.00058207		-0.00058152
Si		16.74212004		4.64679552		1.10669999		-0.00159632		-0.00054841		-0.00047978
Si		-1.10611920		10.29319442		4.16329917		 0.00159632		 0.00054841		 0.00047978
Si		8.14388041		8.81319351		3.74170051		 0.00159632		 0.00054841		-0.00047978
Si		7.49212043		6.12679643		1.52830052		-0.00159632		-0.00054841		 0.00047978
Si		1.43512049		15.81679090		0.21080027		-0.00153199		 0.00003577		-0.00032916
Si		14.20088035		-0.87680096		5.05920077		 0.00153199		-0.00003577		 0.00032916
Si		4.95088074		0.60319808		2.84580078		 0.00153199		-0.00003577		-0.00032916
Si		10.68512198		14.33678998		2.42420025		-0.00153199		 0.00003577		 0.00032916
Si		13.22712045		5.20919560		5.05920077		 0.00025186		 0.00006015		 0.00002692
Si		2.40888039		9.73079433		0.21080027		-0.00025186		-0.00006015		-0.00002692
Si		11.65888000		8.25079342		2.42420025		-0.00025186		-0.00006015		 0.00002692
Si		3.97712084		6.68919652		2.84580078		 0.00025186		 0.00006015		-0.00002692
Si		1.72152146		14.02679191		2.84580078		 0.00106520		 0.00003216		 0.00017985
Si		13.91447938		0.91319803		2.42420025		-0.00106520		-0.00003216		-0.00017985
Si		4.66447977		2.39319707		0.21080027		-0.00106520		-0.00003216		 0.00017985
Si		10.97152107		12.54679100		5.05920077		 0.00106520		 0.00003216		-0.00017985
Si		13.51351954		3.41919662		2.42420025		-0.00007360		 0.00014313		-0.00002844
Si		2.12248130		11.52079332		2.84580078		 0.00007360		-0.00014313		 0.00002844
Si		11.37248279		10.04079241		5.05920077		 0.00007360		-0.00014313		-0.00002844
Si		4.26352180		4.89919753		0.21080027		-0.00007360		 0.00014313		 0.00002844
O		0.90952029		1.07539892		1.05399946		 0.00050559		-0.00180647		-0.00120354
O		14.72648055		13.86459102		4.21599970		-0.00050559		 0.00180647		 0.00120354
O		5.47648094		15.34459006		3.68899997		-0.00050559		 0.00180647		-0.00120354
O		10.15951990		-0.40460012		1.58099919		 0.00050559		-0.00180647		 0.00120354
O		15.75752176		7.42059466		4.21599970		 0.00114692		 0.00050714		 0.00105339
O		-0.12151905		7.51939528		1.05399946		-0.00114692		-0.00050714		-0.00105339
O		9.12848056		6.03939624		1.58099919		-0.00114692		-0.00050714		 0.00105339
O		6.50752028		8.90059370		3.68899997		 0.00114692		 0.00050714		-0.00105339
O		0.59448054		3.04439875		3.68899997		-0.00034302		-0.00033924		 0.00074355
O		15.04152029		11.89559119		1.58099919		 0.00034302		 0.00033924		-0.00074355
O		5.79152068		13.37559211		1.05399946		 0.00034302		 0.00033924		 0.00074355
O		9.84448015		1.56439783		4.21599970		-0.00034302		-0.00033924		-0.00074355
O		15.44248014		9.38959261		1.58099919		-0.00080852		-0.00033632		 0.00242155
O		0.19352070		5.55039733		3.68899997		 0.00080852		 0.00033632		-0.00242155
O		9.44352031		4.07039642		4.21599970		 0.00080852		 0.00033632		 0.00242155
O		6.19248053		10.86959352		1.05399946		-0.00080852		-0.00033632		-0.00242155
O		-1.03799951		13.24739205		1.05399946		 0.00119654		-0.00055079		-0.00027543
O		16.67400035		1.69259789		4.21599970		-0.00119654		 0.00055079		 0.00027543
O		7.42400074		3.17259881		3.68899997		-0.00119654		 0.00055079		-0.00027543
O		8.21200010		11.76739301		1.58099919		 0.00119654		-0.00055079		 0.00027543
O		0.39399968		4.29739710		1.05399946		-0.00075128		-0.00087169		-0.00060003
O		15.24200116		10.64259284		4.21599970		 0.00075128		 0.00087169		 0.00060003
O		5.99200155		12.12259375		3.68899997		 0.00075128		 0.00087169		-0.00060003
O		9.64399929		2.81739806		1.58099919		-0.00075128		-0.00087169		 0.00060003
O		1.10999928		-0.17759943		3.68899997		-0.00007368		-0.00061725		 0.00057075
O		17.38999994		-2.78240052		1.58099919		 0.00007368		 0.00061725		-0.00057075
O		8.14000033		-1.30239960		1.05399946		 0.00007368		 0.00061725		 0.00057075
O		10.36000076		-1.65760035		4.21599970		-0.00007368		-0.00061725		-0.00057075
O		15.95800075		6.16759443		1.58099919		-0.00084567		-0.00071064		 0.00129757
O		-0.32199991		8.77239551		3.68899997		 0.00084567		 0.00071064		-0.00129757
O		8.92800157		7.29239460		4.21599970		 0.00084567		 0.00071064		 0.00129757
O		6.70800114		7.64759534		1.05399946		-0.00084567		-0.00071064		-0.00129757
O		-1.56667979		15.42499074		0.26350080		-0.00087673		-0.00131338		 0.00018652
O		17.20268063		-0.48500080		5.00650023		 0.00087673		 0.00131338		-0.00018652
O		7.95267915		0.99499824		2.89849944		 0.00087673		 0.00131338		 0.00018652
O		7.68332169		13.94499170		2.37149971		-0.00087673		-0.00131338		-0.00018652
O		16.51531982		3.81099677		5.00650023		-0.00027053		-0.00042624		-0.00026330
O		-0.87931898		11.12899316		0.26350080		 0.00027053		 0.00042624		 0.00026330
O		8.37068063		9.64899413		2.37149971		 0.00027053		 0.00042624		-0.00026330
O		7.26532021		5.29099581		2.89849944		-0.00027053		-0.00042624		 0.00026330
O		-1.56667979		15.42499074		2.84580078		 0.00012684		 0.00037388		-0.00040287
O		17.20268063		-0.48500080		2.42420025		-0.00012684		-0.00037388		 0.00040287
O		7.95267915		0.99499824		0.21080027		-0.00012684		-0.00037388		-0.00040287
O		7.68332169		13.94499170		5.05920077		 0.00012684		 0.00037388		 0.00040287
O		16.51531982		3.81099677		2.42420025		 0.00000952		 0.00031371		 0.00062888
O		-0.87931898		11.12899316		2.84580078		-0.00000952		-0.00031371		-0.00062888
O		8.37068063		9.64899413		5.05920077		-0.00000952		-0.00031371		 0.00062888
O		7.26532021		5.29099581		0.21080027		 0.00000952		 0.00031371		-0.00062888
O		2.99948086		2.65959810		0.26350080		-0.00117342		-0.00128431		-0.00034100
O		12.63651998		12.28039184		5.00650023		 0.00117342		 0.00128431		 0.00034100
O		3.38652037		13.76039275		2.89849944		 0.00117342		 0.00128431		-0.00034100
O		12.24948047		1.17959718		2.37149971		-0.00117342		-0.00128431		 0.00034100
O		13.03748171		9.77439326		5.00650023		 0.00037262		 0.00133968		-0.00115490
O		2.59851913		5.16559668		0.26350080		-0.00037262		-0.00133968		 0.00115490
O		11.84852062		3.68559764		2.37149971		-0.00037262		-0.00133968		-0.00115490
O		3.78748022		11.25439230		2.89849944		 0.00037262		 0.00133968		 0.00115490
O		3.31452060		0.69059827		2.95119998		 0.00081288		 0.00142459		 0.00019819
O		12.32148024		14.24939167		2.31879918		-0.00081288		-0.00142459		-0.00019819
O		3.07148063		15.72939071		0.31619946		-0.00081288		-0.00142459		 0.00019819
O		12.56452021		-0.78940077		4.95379970		 0.00081288		 0.00142459		-0.00019819
O		13.35252145		7.80539343		2.31879918		 0.00030611		 0.00046916		 0.00004708
O		2.28348126		7.13459650		2.95119998		-0.00030611		-0.00046916		-0.00004708
O		11.53348087		5.65459559		4.95379970		-0.00030611		-0.00046916		 0.00004708
O		4.10252184		9.28539435		0.31619946		 0.00030611		 0.00046916		-0.00004708
O		3.51499959		-0.56240008		0.26350080		-0.00083749		 0.00065499		-0.00059366
O		14.98499963		-2.39759987		5.00650023		 0.00083749		-0.00065499		 0.00059366
O		5.73500002		-0.91760083		2.89849944		 0.00083749		-0.00065499		-0.00059366
O		12.76499920		-2.04239912		2.37149971		-0.00083749		 0.00065499		 0.00059366
O		13.55300044		6.55239508		5.00650023		 0.00197617		-0.00039337		 0.00075419
O		2.08300040		8.38759486		0.26350080		-0.00197617		 0.00039337		-0.00075419
O		11.33300001		6.90759582		2.37149971		-0.00197617		 0.00039337		 0.00075419
O		4.30300083		8.03239412		2.89849944		 0.00197617		-0.00039337		-0.00075419
O		1.36700080		12.86259327		2.37149971		 0.00112207		-0.00066220		 0.00000061
O		14.26900004		2.07739854		2.89849944		-0.00112207		 0.00066220		-0.00000061
O		5.01900043		3.55739758		5.00650023		-0.00112207		 0.00066220		 0.00000061
O		10.61700041		11.38259236		0.26350080		 0.00112207		-0.00066220		-0.00000061
O		2.79899999		3.91259832		2.89849944		-0.00138557		-0.00019713		 0.00173841
O		12.83700084		11.02739349		2.37149971		 0.00138557		 0.00019713		-0.00173841
O		3.58700123		12.50739253		0.26350080		 0.00138557		 0.00019713		 0.00173841
O		12.04899960		2.43259741		5.00650023		-0.00138557		-0.00019713		-0.00173841
O		1.20832028		14.98099028		1.58099919		 0.00096423		 0.00070566		 0.00082179
O		14.42768056		-0.04100034		3.68899997		-0.00096423		-0.00070566		-0.00082179
O		5.17767908		1.43899870		4.21599970		-0.00096423		-0.00070566		 0.00082179
O		10.45832176		13.50099124		1.05399946		 0.00096423		 0.00070566		-0.00082179
O		13.74032162		4.25499536		3.68899997		 0.00061088		 0.00006861		 0.00020591
O		1.89568109		10.68499458		1.58099919		-0.00061088		-0.00006861		-0.00020591
O		11.14568070		9.20499366		1.05399946		-0.00061088		-0.00006861		 0.00020591
O		4.49032014		5.73499627		4.21599970		 0.00061088		 0.00006861		-0.00020591
O		1.20832028		14.98099028		4.21599970		-0.00020252		-0.00021424		-0.00047683
O		14.42768056		-0.04100034		1.05399946		 0.00020252		 0.00021424		 0.00047683
O		5.17767908		1.43899870		1.58099919		 0.00020252		 0.00021424		-0.00047683
O		10.45832176		13.50099124		3.68899997		-0.00020252		-0.00021424		 0.00047683
O		13.74032162		4.25499536		1.05399946		 0.00028301		-0.00051584		-0.00081728
O		1.89568109		10.68499458		4.21599970		-0.00028301		 0.00051584		 0.00081728
O		11.14568070		9.20499366		3.68899997		-0.00028301		 0.00051584		-0.00081728
O		4.49032014		5.73499627		1.58099919		 0.00028301		-0.00051584		 0.00081728
H		17.94500146		-2.87120023		0.79050053		 0.00065007		 0.00043451		-0.00003782
H		0.55499964		-0.08879972		4.47950050		-0.00065007		-0.00043451		 0.00003782
H		9.80499925		-1.56880063		3.42549917		-0.00065007		-0.00043451		-0.00003782
H		8.69500184		-1.39119932		1.84449999		 0.00065007		 0.00043451		 0.00003782
H		-0.87699955		8.86119523		4.47950050		-0.00031438		-0.00035964		-0.00040653
H		16.51300039		6.07879471		0.79050053		 0.00031438		 0.00035964		 0.00040653
H		7.26300078		7.55879562		1.84449999		 0.00031438		 0.00035964		-0.00040653
H		8.37300006		7.38119432		3.42549917		-0.00031438		-0.00035964		 0.00040653
