# total energy = -92493.8608954 eV

CRYSTAL
PRIMVEC
		18.50000256		2.21999584		0.00000000
		2.14799899		17.89999160		0.00000000
		0.00000000		0.00000000		5.27000497
PRIMECORD
   164 1
Mg		2.77016053		3.33159803		2.00260040		-0.00081249		 0.00236625		-0.00155096
Mg		17.87783915		16.78839127		3.26740085		 0.00081249		-0.00236625		 0.00155096
Mg		8.62783787		15.67839149		4.63759916		 0.00081249		-0.00236625		-0.00155096
Mg		12.02015995		4.44159781		0.63240022		-0.00081249		 0.00236625		 0.00155096
Mg		17.53415857		13.92439447		3.26740085		 0.00107617		 0.00267925		-0.00188129
Mg		3.11383925		6.19559669		2.00260040		-0.00107617		-0.00267925		 0.00188129
Mg		12.36383867		7.30559647		0.63240022		-0.00107617		-0.00267925		-0.00188129
Mg		8.28415915		12.81439283		4.63759916		 0.00107617		 0.00267925		 0.00188129
Mg		2.57684044		1.72059972		4.58490022		-0.00019542		-0.00007988		-0.00073030
Mg		18.07115925		18.39939144		0.68509916		 0.00019542		 0.00007988		 0.00073030
Mg		8.82115797		17.28938980		1.94989960		 0.00019542		 0.00007988		-0.00073030
Mg		11.82683986		2.83059950		3.32009978		-0.00019542		-0.00007988		 0.00073030
Mg		17.34083847		12.31339430		0.68509916		-0.00215936		-0.00085414		 0.00203044
Mg		3.30715935		7.80659500		4.58490022		 0.00215936		 0.00085414		-0.00203044
Mg		12.55715877		8.91659664		3.32009978		 0.00215936		 0.00085414		 0.00203044
Mg		8.09083906		11.20339452		1.94989960		-0.00215936		-0.00085414		-0.00203044
Mg		4.51003953		17.83059029		2.00260040		-0.00048532		 0.00025099		 0.00231438
Mg		16.13796016		2.28940087		3.26740085		 0.00048532		-0.00025099		-0.00231438
Mg		6.88796074		1.17939922		4.63759916		 0.00048532		-0.00025099		 0.00231438
Mg		13.76003895		18.94059008		0.63240022		-0.00048532		 0.00025099		-0.00231438
Mg		17.12603858		10.52339514		3.26740085		-0.00144246		-0.00027221		-0.00129849
Mg		3.52195925		9.59659416		2.00260040		 0.00144246		 0.00027221		 0.00129849
Mg		12.77195867		10.70659394		0.63240022		 0.00144246		 0.00027221		-0.00129849
Mg		7.87603916		9.41339536		4.63759916		-0.00144246		-0.00027221		 0.00129849
Mg		2.94200083		4.76359736		4.58490022		 0.00158233		 0.00035922		-0.00163779
Mg		17.70599886		15.35639194		0.68509916		-0.00158233		-0.00035922		 0.00163779
Mg		8.45599945		14.24639216		1.94989960		-0.00158233		-0.00035922		-0.00163779
Mg		12.19200024		5.87359714		3.32009978		 0.00158233		 0.00035922		 0.00163779
Si		2.31635869		14.74459205		1.52830070		 0.00059297		 0.00043072		-0.00082917
Si		18.33163913		5.37539724		3.74170055		-0.00059297		-0.00043072		 0.00082917
Si		9.08163972		4.26539746		4.16329945		-0.00059297		-0.00043072		-0.00082917
Si		11.56635811		15.85459184		1.10669993		 0.00059297		 0.00043072		 0.00082917
Si		18.63236011		7.88139607		3.74170055		-0.00094517		 0.00079856		 0.00069693
Si		2.01563958		12.23859323		1.52830070		 0.00094517		-0.00079856		-0.00069693
Si		11.26563899		13.34859301		1.10669993		 0.00094517		-0.00079856		 0.00069693
Si		9.38236069		6.77139629		4.16329945		-0.00094517		 0.00079856		-0.00069693
Si		2.53115859		16.53459121		4.16329945		-0.00033386		 0.00072682		-0.00041775
Si		18.11683923		3.58539808		1.10669993		 0.00033386		-0.00072682		 0.00041775
Si		8.86683982		2.47539830		1.52830070		 0.00033386		-0.00072682		-0.00041775
Si		11.78115801		17.64459100		3.74170055		-0.00033386		 0.00072682		 0.00041775
Si		18.84716001		9.67139523		1.10669993		 0.00021351		 0.00036222		-0.00017276
Si		1.80083968		10.44859407		4.16329945		-0.00021351		-0.00036222		 0.00017276
Si		11.05083910		11.55859385		3.74170055		-0.00021351		-0.00036222		-0.00017276
Si		9.59716059		8.56139545		1.52830070		 0.00021351		 0.00036222		 0.00017276
Si		6.04615852		16.95639136		0.21079945		 0.00083841		-0.00123998		 0.00094619
Si		14.60183931		3.16359981		5.05919993		-0.00083841		 0.00123998		-0.00094619
Si		5.35183989		2.05359816		2.84580007		-0.00083841		 0.00123998		 0.00094619
Si		15.29615793		18.06639114		2.42419930		 0.00083841		-0.00123998		-0.00094619
Si		15.33215822		9.24959509		5.05919993		 0.00060395		-0.00142188		-0.00048817
Si		5.31583961		10.87039421		0.21079945		-0.00060395		 0.00142188		 0.00048817
Si		14.56583902		11.98039399		2.42419930		-0.00060395		 0.00142188		-0.00048817
Si		6.08216067		8.13959531		2.84580007		 0.00060395		-0.00142188		 0.00048817
Si		5.83135862		15.16639220		2.84580007		-0.00106239		-0.00162982		 0.00112569
Si		14.81663921		4.95359710		2.42419930		 0.00106239		 0.00162982		-0.00112569
Si		5.56663979		3.84359732		0.21079945		 0.00106239		 0.00162982		 0.00112569
Si		15.08135990		16.27639198		5.05919993		-0.00106239		-0.00162982		-0.00112569
Si		15.11735832		7.45959593		2.42419930		 0.00023650		 0.00167025		-0.00028258
Si		5.53063951		12.66039337		2.84580007		-0.00023650		-0.00167025		 0.00028258
Si		14.78063892		13.77039315		5.05919993		-0.00023650		-0.00167025		-0.00028258
Si		5.86736077		6.34959615		0.21079945		 0.00023650		 0.00167025		 0.00028258
O		1.26036027		1.38619823		1.05399913		 0.00091109		 0.00123235		 0.00100381
O		19.38763942		18.73379107		4.21600025		-0.00091109		-0.00123235		-0.00100381
O		10.13763814		17.62379129		3.68899975		-0.00091109		-0.00123235		 0.00100381
O		10.51035969		2.49619801		1.58099963		 0.00091109		 0.00123235		-0.00100381
O		18.61435904		12.28979409		4.21600025		 0.00167844		-0.00040838		-0.00057703
O		2.03363879		7.83019521		1.05399913		-0.00167844		 0.00040838		 0.00057703
O		11.28364007		8.94019499		1.58099963		-0.00167844		 0.00040838		-0.00057703
O		9.36435962		11.17979431		3.68899975		 0.00167844		-0.00040838		 0.00057703
O		1.49663997		3.35519824		3.68899975		 0.00061118		 0.00213126		 0.00149145
O		19.15135785		16.76479106		1.58099963		-0.00061118		-0.00213126		-0.00149145
O		9.90135844		15.65479128		1.05399913		-0.00061118		-0.00213126		 0.00149145
O		10.74663939		4.46519802		4.21600025		 0.00061118		 0.00213126		-0.00149145
O		18.85063874		14.25879224		1.58099963		 0.00028657		 0.00230461		-0.00177601
O		1.79735909		5.86119706		3.68899975		-0.00028657		-0.00230461		 0.00177601
O		11.04736037		6.97119684		4.21600025		-0.00028657		-0.00230461		-0.00177601
O		9.60063932		13.14879246		1.05399913		 0.00028657		 0.00230461		 0.00177601
O		2.72099809		13.55819252		1.05399913		-0.00052539		 0.00029011		-0.00144651
O		17.92699973		6.56179864		4.21600025		 0.00052539		-0.00029011		 0.00144651
O		8.67700032		5.45179700		3.68899975		 0.00052539		-0.00029011		-0.00144651
O		11.97099937		14.66819230		1.58099963		-0.00052539		 0.00029011		 0.00144651
O		1.64700046		4.60819858		1.05399913		-0.00205098		-0.00081850		-0.00104280
O		19.00099923		15.51179258		4.21600025		 0.00205098		 0.00081850		 0.00104280
O		9.75099795		14.40179280		3.68899975		 0.00205098		 0.00081850		-0.00104280
O		10.89699988		5.71819836		1.58099963		-0.00205098		-0.00081850		 0.00104280
O		1.10999978		0.13319975		3.68899975		-0.00062249		 0.00055033		 0.00074593
O		17.38999905		2.08679981		1.58099963		 0.00062249		-0.00055033		-0.00074593
O		8.13999964		0.97680003		1.05399913		 0.00062249		-0.00055033		 0.00074593
O		10.35999920		1.24319953		4.21600025		-0.00062249		 0.00055033		-0.00074593
O		18.46399855		11.03679561		1.58099963		 0.00037577		-0.00135565		-0.00104775
O		2.18399928		9.08319555		3.68899975		-0.00037577		 0.00135565		 0.00104775
O		11.43399869		10.19319533		4.21600025		-0.00037577		 0.00135565		-0.00104775
O		9.21399913		9.92679397		1.05399913		 0.00037577		-0.00135565		 0.00104775
O		2.79375888		15.68399062		0.26350025		 0.00119583		 0.00158495		-0.00153832
O		17.85423895		4.43599868		5.00649913		-0.00119583		-0.00158495		 0.00153832
O		8.60423953		3.32599890		2.89849901		-0.00119583		-0.00158495		-0.00153832
O		12.04375829		16.79399040		2.37150037		 0.00119583		 0.00158495		 0.00153832
O		18.36975796		8.73199666		5.00649913		 0.00095125		-0.00024972		 0.00032654
O		2.27823987		11.38799450		0.26350025		-0.00095125		 0.00024972		-0.00032654
O		11.52823928		12.49799428		2.37150037		-0.00095125		 0.00024972		 0.00032654
O		9.11975854		7.62199502		2.89849901		 0.00095125		-0.00024972		-0.00032654
O		2.79375888		15.68399062		2.84580007		-0.00093195		 0.00059204		-0.00131095
O		17.85423895		4.43599868		2.42419930		 0.00093195		-0.00059204		 0.00131095
O		8.60423953		3.32599890		0.21079945		 0.00093195		-0.00059204		-0.00131095
O		12.04375829		16.79399040		5.05919993		-0.00093195		 0.00059204		 0.00131095
O		18.36975796		8.73199666		2.42419930		-0.00179669		 0.00125922		 0.00100205
O		2.27823987		11.38799450		2.84580007		 0.00179669		-0.00125922		-0.00100205
O		11.52823928		12.49799428		5.05919993		 0.00179669		-0.00125922		 0.00100205
O		9.11975854		7.62199502		0.21079945		-0.00179669		 0.00125922		-0.00100205
O		3.90164012		3.64379863		0.26350025		-0.00067828		-0.00006750		 0.00077815
O		16.74635771		16.47619067		5.00649913		 0.00067828		 0.00006750		-0.00077815
O		7.49635829		15.36619089		2.89849901		 0.00067828		 0.00006750		 0.00077815
O		13.15163954		4.75379841		2.37150037		-0.00067828		-0.00006750		-0.00077815
O		16.44563859		13.97019185		5.00649913		-0.00045113		 0.00011939		 0.00305513
O		4.20235923		6.14979745		0.26350025		 0.00045113		-0.00011939		-0.00305513
O		13.45236051		7.25979723		2.37150037		 0.00045113		-0.00011939		 0.00305513
O		7.19563918		12.86019206		2.89849901		-0.00045113		 0.00011939		-0.00305513
O		3.66536042		1.67479862		2.95119980		-0.00195795		-0.00271963		-0.00092579
O		16.98263927		18.44519068		2.31879958		 0.00195795		 0.00271963		 0.00092579
O		7.73263799		17.33519090		0.31619918		 0.00195795		 0.00271963		-0.00092579
O		12.91535983		2.78479840		4.95380020		-0.00195795		-0.00271963		 0.00092579
O		16.20935889		12.00119370		2.31879958		-0.00096855		 0.00065575		 0.00143305
O		4.43863893		8.11879560		2.95119980		 0.00096855		-0.00065575		-0.00143305
O		13.68863835		9.22879538		4.95380020		 0.00096855		-0.00065575		 0.00143305
O		6.95935947		10.89119392		0.31619918		-0.00096855		 0.00065575		-0.00143305
O		3.51499993		0.42180014		0.26350025		-0.00042537		-0.00125793		 0.00075725
O		14.98499891		1.79819942		5.00649913		 0.00042537		 0.00125793		-0.00075725
O		5.73499949		0.68819964		2.89849901		 0.00042537		 0.00125793		 0.00075725
O		12.76499934		1.53179992		2.37150037		-0.00042537		-0.00125793		-0.00075725
O		16.05899840		10.74819522		5.00649913		-0.00104584		-0.00124107		 0.00101422
O		4.58899942		9.37179408		0.26350025		 0.00104584		 0.00124107		-0.00101422
O		13.83899884		10.48179386		2.37150037		 0.00104584		 0.00124107		 0.00101422
O		6.80899899		9.63819544		2.89849901		-0.00104584		-0.00124107		-0.00101422
O		5.12599824		13.84679291		2.37150037		-0.00225048		 0.00001770		 0.00098085
O		15.52199959		6.27319825		2.89849901		 0.00225048		-0.00001770		-0.00098085
O		6.27200017		5.16319847		5.00649913		 0.00225048		-0.00001770		 0.00098085
O		14.37599952		14.95679269		0.26350025		-0.00225048		 0.00001770		-0.00098085
O		4.05200061		4.89679711		2.89849901		 0.00048381		 0.00149605		-0.00250801
O		16.59599908		15.22319219		2.37150037		-0.00048381		-0.00149605		 0.00250801
O		7.34599966		14.11319241		0.26350025		-0.00048381		-0.00149605		-0.00250801
O		13.30200002		6.00679875		5.00649913		 0.00048381		 0.00149605		 0.00250801
O		5.56875833		16.01699093		1.58099963		-0.00171055		 0.00126998		 0.00249388
O		15.07923949		4.10299837		3.68899975		 0.00171055		-0.00126998		-0.00249388
O		5.82924008		2.99299859		4.21600025		 0.00171055		-0.00126998		 0.00249388
O		14.81875775		17.12699071		1.05399913		-0.00171055		 0.00126998		-0.00249388
O		15.59476037		8.39899635		3.68899975		 0.00102969		-0.00107569		 0.00083208
O		5.05323932		11.72099294		1.58099963		-0.00102969		 0.00107569		-0.00083208
O		14.30323873		12.83099459		1.05399913		-0.00102969		 0.00107569		 0.00083208
O		6.34475909		7.28899657		4.21600025		 0.00102969		-0.00107569		-0.00083208
O		5.56875833		16.01699093		4.21600025		-0.00080757		-0.00117226		 0.00135384
O		15.07923949		4.10299837		1.05399913		 0.00080757		 0.00117226		-0.00135384
O		5.82924008		2.99299859		1.58099963		 0.00080757		 0.00117226		 0.00135384
O		14.81875775		17.12699071		3.68899975		-0.00080757		-0.00117226		-0.00135384
O		15.59476037		8.39899635		1.05399913		-0.00056725		 0.00091304		 0.00136142
O		5.05323932		11.72099294		4.21600025		 0.00056725		-0.00091304		-0.00136142
O		14.30323873		12.83099459		3.68899975		 0.00056725		-0.00091304		 0.00136142
O		6.34475909		7.28899657		1.58099963		-0.00056725		 0.00091304		-0.00136142
H		17.94500081		2.15340062		0.79050075		 0.00056581		-0.00090490		 0.00134322
H		0.55499989		0.06660081		4.47950050		-0.00056581		 0.00090490		-0.00134322
H		9.80499931		1.17660059		3.42549950		-0.00056581		 0.00090490		 0.00134322
H		8.69500139		1.04340084		1.84449988		 0.00056581		-0.00090490		-0.00134322
H		1.62899939		9.01659474		4.47950050		 0.00036543		-0.00086174		-0.00232768
H		19.01900030		11.10339455		0.79050075		-0.00036543		 0.00086174		 0.00232768
H		9.76899902		9.99339477		1.84449988		-0.00036543		 0.00086174		-0.00232768
H		10.87899880		10.12659452		3.42549950		 0.00036543		-0.00086174		 0.00232768
