# total energy = -92496.8746594 eV

CRYSTAL
PRIMVEC
		18.50000034		0.73999927		0.00000000
		0.71600410		17.89999143		0.00000000
		0.00000000		0.00000000		5.26999532
PRIMECORD
   164 1
Mg		2.52671945		3.13919808		2.00260082		 0.00030566		-0.00013286		 0.00081317
Mg		16.68927944		15.50079077		3.26740006		-0.00030566		 0.00013286		-0.00081317
Mg		7.43927927		15.13079113		4.63760033		-0.00030566		 0.00013286		 0.00081317
Mg		11.77671962		3.50919771		0.63240055		 0.00030566		-0.00013286		-0.00081317
Mg		16.57471916		12.63679288		3.26740006		-0.00009455		 0.00077058		 0.00006912
Mg		2.64127973		6.00319597		2.00260082		 0.00009455		-0.00077058		-0.00006912
Mg		11.89127990		6.37319560		0.63240055		 0.00009455		-0.00077058		 0.00006912
Mg		7.32471899		12.26679325		4.63760033		-0.00009455		 0.00077058		-0.00006912
Mg		2.46228056		1.52819811		4.58489982		 0.00050647		-0.00017723		 0.00022524
Mg		16.75372018		17.11179074		0.68509921		-0.00050647		 0.00017723		-0.00022524
Mg		7.50372001		16.74179110		1.94990031		-0.00050647		 0.00017723		 0.00022524
Mg		11.71227888		1.89819960		3.32010057		 0.00050647		-0.00017723		-0.00022524
Mg		16.51028027		11.02579291		0.68509921		 0.00045933		 0.00028709		 0.00063225
Mg		2.70572047		7.61419593		4.58489982		-0.00045933		-0.00028709		-0.00063225
Mg		11.95572064		7.98419557		3.32010057		-0.00045933		-0.00028709		 0.00063225
Mg		7.26028010		10.65579328		1.94990031		 0.00045933		 0.00028709		-0.00063225
Mg		3.10668055		17.63819039		2.00260082		-0.00008243		 0.00001434		 0.00058164
Mg		16.10932020		1.00180031		3.26740006		 0.00008243		-0.00001434		-0.00058164
Mg		6.85932002		0.63180067		4.63760033		 0.00008243		-0.00001434		 0.00058164
Mg		12.35667887		18.00819003		0.63240055		-0.00008243		 0.00001434		-0.00058164
Mg		16.43867986		9.23579562		3.26740006		-0.00011228		 0.00039589		 0.00012901
Mg		2.77731903		9.40419323		2.00260082		 0.00011228		-0.00039589		-0.00012901
Mg		12.02731920		9.77419286		0.63240055		 0.00011228		-0.00039589		 0.00012901
Mg		7.18867969		8.86579413		4.63760033		-0.00011228		 0.00039589		-0.00012901
Mg		2.58400051		4.57119702		4.58489982		 0.00004146		-0.00054225		-0.00000483
Mg		16.63200023		14.06879183		0.68509921		-0.00004146		 0.00054225		 0.00000483
Mg		7.38200006		13.69879219		1.94990031		-0.00004146		 0.00054225		-0.00000483
Mg		11.83399883		4.94119851		3.32010057		 0.00004146		-0.00054225		 0.00000483
Si		1.14212023		14.70019258		1.52829994		 0.00007867		 0.00013339		-0.00015153
Si		18.07387866		3.93979812		3.74169909		-0.00007867		-0.00013339		 0.00015153
Si		8.82388034		3.56979849		4.16329945		-0.00007867		-0.00013339		-0.00015153
Si		10.39211855		15.07019221		1.10669957		 0.00007867		 0.00013339		 0.00015153
Si		18.17411961		6.44579766		3.74169909		-0.00017161		 0.00009136		 0.00001138
Si		1.04187928		12.19419304		1.52829994		 0.00017161		-0.00009136		-0.00001138
Si		10.29187945		12.56419267		1.10669957		 0.00017161		-0.00009136		 0.00001138
Si		8.92411944		6.07579617		4.16329945		-0.00017161		 0.00009136		-0.00001138
Si		1.21372064		16.49018987		4.16329945		-0.00042245		 0.00023128		-0.00019149
Si		18.00228011		2.14979898		1.10669957		 0.00042245		-0.00023128		 0.00019149
Si		8.75227993		1.77979934		1.52829994		 0.00042245		-0.00023128		-0.00019149
Si		10.46371896		16.86019136		3.74169909		-0.00042245		 0.00023128		 0.00019149
Si		18.24572002		8.23579495		1.10669957		-0.00015208		-0.00032735		 0.00006542
Si		0.97028072		10.40419389		4.16329945		 0.00015208		 0.00032735		-0.00006542
Si		10.22027904		10.77419353		3.74169909		 0.00015208		 0.00032735		 0.00006542
Si		8.99571985		7.86579532		1.52829994		-0.00015208		-0.00032735		-0.00006542
Si		4.72871903		16.63079121		0.21080018		-0.00010447		-0.00014034		-0.00004351
Si		14.48727800		2.00919949		5.05920070		 0.00010447		 0.00014034		 0.00004351
Si		5.23727968		1.63919985		2.84579970		 0.00010447		 0.00014034		-0.00004351
Si		13.97871921		17.00079085		2.42419933		-0.00010447		-0.00014034		 0.00004351
Si		14.73071792		8.09519546		5.05920070		 0.00005890		-0.00025795		 0.00010428
Si		4.48527912		10.54479339		0.21080018		-0.00005890		 0.00025795		-0.00010428
Si		13.73527929		10.91479302		2.42419933		-0.00005890		 0.00025795		 0.00010428
Si		5.48071960		7.72519582		2.84579970		 0.00005890		-0.00025795		-0.00010428
Si		4.65712048		14.84079207		2.84579970		 0.00014093		-0.00009344		-0.00016512
Si		14.55887841		3.79919863		2.42419933		-0.00014093		 0.00009344		 0.00016512
Si		5.30888009		3.42919714		0.21080018		-0.00014093		 0.00009344		-0.00016512
Si		13.90711880		15.21079171		5.05920070		 0.00014093		-0.00009344		 0.00016512
Si		14.65911936		6.30519632		2.42419933		 0.00002982		 0.00000284		 0.00023070
Si		4.55687953		12.33479253		2.84579970		-0.00002982		-0.00000284		-0.00023070
Si		13.80687970		12.70479216		5.05920070		-0.00002982		-0.00000284		 0.00023070
Si		5.40911919		5.93519668		0.21080018		 0.00002982		 0.00000284		-0.00023070
O		1.16012031		1.29739825		1.05399906		 0.00033808		-0.00001620		 0.00072843
O		18.05588043		17.34259060		4.21599996		-0.00033808		 0.00001620		-0.00072843
O		8.80588026		16.97259097		3.68900043		-0.00033808		 0.00001620		 0.00072843
O		10.41012048		1.66739973		1.58100045		 0.00033808		-0.00001620		-0.00072843
O		17.79811933		10.89859443		4.21599996		 0.00015680		 0.00022843		 0.00008141
O		1.41787956		7.74139627		1.05399906		-0.00015680		-0.00022843		-0.00008141
O		10.66787973		8.11139591		1.58100045		-0.00015680		-0.00022843		 0.00008141
O		8.54811916		10.52859294		3.68900043		 0.00015680		 0.00022843		-0.00008141
O		1.23888039		3.26639841		3.68900043		-0.00031109		-0.00007206		-0.00014592
O		17.97712035		15.37359229		1.58100045		 0.00031109		 0.00007206		 0.00014592
O		8.72712018		15.00359080		1.05399906		 0.00031109		 0.00007206		-0.00014592
O		10.48888056		3.63639805		4.21599996		-0.00031109		-0.00007206		 0.00014592
O		17.87687941		12.86759275		1.58100045		 0.00006191		 0.00018379		 0.00011227
O		1.33911948		5.77239610		3.68900043		-0.00006191		-0.00018379		-0.00011227
O		10.58911965		6.14239759		4.21599996		-0.00006191		-0.00018379		 0.00011227
O		8.62687924		12.49759311		1.05399906		 0.00006191		 0.00018379		-0.00011227
O		1.64700013		13.46939204		1.05399906		-0.00009176		 0.00003659		 0.00007210
O		17.56899876		5.17059865		4.21599996		 0.00009176		-0.00003659		-0.00007210
O		8.31900044		4.80059717		3.68900043		 0.00009176		-0.00003659		 0.00007210
O		10.89700031		13.83939353		1.58100045		-0.00009176		 0.00003659		-0.00007210
O		1.28899993		4.51939818		1.05399906		-0.00015748		 0.00046714		 0.00030081
O		17.92699896		14.12059252		4.21599996		 0.00015748		-0.00046714		-0.00030081
O		8.67700063		13.75059288		3.68900043		 0.00015748		-0.00046714		 0.00030081
O		10.53900011		4.88939782		1.58100045		-0.00015748		 0.00046714		-0.00030081
O		1.11000076		0.04440033		3.68900043		-0.00015226		 0.00004698		-0.00033539
O		17.38999958		0.69560080		1.58100045		 0.00015226		-0.00004698		 0.00033539
O		8.13999941		0.32559931		1.05399906		 0.00015226		-0.00004698		-0.00033539
O		10.35999908		0.41439996		4.21599996		-0.00015226		 0.00004698		 0.00033539
O		17.74799978		9.64559466		1.58100045		-0.00008095		-0.00029622		 0.00027627
O		1.46799911		8.99439419		3.68900043		 0.00008095		 0.00029622		-0.00027627
O		10.71799928		9.36439568		4.21599996		 0.00008095		 0.00029622		 0.00027627
O		8.49799961		9.27559502		1.05399906		-0.00008095		-0.00029622		-0.00027627
O		1.54792007		15.60999102		0.26350069		-0.00000276		 0.00046031		-0.00029518
O		17.66807882		3.02999968		5.00650019		 0.00000276		-0.00046031		 0.00029518
O		8.41808050		2.65999819		2.89850021		 0.00000276		-0.00046031		-0.00029518
O		10.79792024		15.97999066		2.37150067		-0.00000276		 0.00046031		 0.00029518
O		17.83992018		7.32599651		5.00650019		-0.00010129		-0.00017858		 0.00012685
O		1.37608056		11.31399419		0.26350069		 0.00010129		 0.00017858		-0.00012685
O		10.62607888		11.68399383		2.37150067		 0.00010129		 0.00017858		 0.00012685
O		8.58992001		6.95599502		2.89850021		-0.00010129		-0.00017858		-0.00012685
O		1.54792007		15.60999102		2.84579970		-0.00016368		 0.00029089		-0.00004164
O		17.66807882		3.02999968		2.42419933		 0.00016368		-0.00029089		 0.00004164
O		8.41808050		2.65999819		0.21080018		 0.00016368		-0.00029089		-0.00004164
O		10.79792024		15.97999066		5.05920070		-0.00016368		 0.00029089		 0.00004164
O		17.83992018		7.32599651		2.42419933		 0.00000277		 0.00022792		 0.00031437
O		1.37608056		11.31399419		2.84579970		-0.00000277		-0.00022792		-0.00031437
O		10.62607888		11.68399383		5.05920070		-0.00000277		-0.00022792		 0.00031437
O		8.58992001		6.95599502		0.21080018		 0.00000277		 0.00022792		-0.00031437
O		3.64387988		3.36259758		0.26350069		 0.00008486		 0.00056434		 0.00010390
O		15.57211901		15.27739127		5.00650019		-0.00008486		-0.00056434		-0.00010390
O		6.32212069		14.90739163		2.89850021		-0.00008486		-0.00056434		 0.00010390
O		12.89388005		3.73259721		2.37150067		 0.00008486		 0.00056434		-0.00010390
O		15.47187992		12.77139358		5.00650019		-0.00005305		-0.00017848		-0.00027048
O		3.74412082		5.86859712		0.26350069		 0.00005305		 0.00017848		 0.00027048
O		12.99411914		6.23859675		2.37150067		 0.00005305		 0.00017848		-0.00027048
O		6.22187975		12.40139209		2.89850021		-0.00005305		-0.00017848		 0.00027048
O		3.56511980		1.39359926		2.95120071		 0.00036041		-0.00053646		 0.00030752
O		15.65087909		17.24639144		2.31880016		-0.00036041		 0.00053646		-0.00030752
O		6.40088077		16.87638995		0.31619935		-0.00036041		 0.00053646		 0.00030752
O		12.81511997		1.76359890		4.95379968		 0.00036041		-0.00053646		-0.00030752
O		15.39311984		10.80239341		2.31880016		-0.00009108		 0.00006444		 0.00004929
O		3.82287905		7.83759543		2.95120071		 0.00009108		-0.00006444		-0.00004929
O		13.07287922		8.20759507		4.95379968		 0.00009108		-0.00006444		 0.00004929
O		6.14311967		10.43239378		0.31619935		-0.00009108		 0.00006444		-0.00004929
O		3.51500025		0.14059949		0.26350069		 0.00032468		 0.00008655		-0.00016288
O		14.98500009		0.59939978		5.00650019		-0.00032468		-0.00008655		 0.00016288
O		5.73499992		0.22940014		2.89850021		-0.00032468		-0.00008655		-0.00016288
O		12.76500042		0.51059913		2.37150067		 0.00032468		 0.00008655		 0.00016288
O		15.34300029		9.54939549		5.00650019		 0.00010974		-0.00028755		-0.00040340
O		3.87300045		9.09059520		0.26350069		-0.00010974		 0.00028755		 0.00040340
O		13.12300062		9.46059484		2.37150067		-0.00010974		 0.00028755		-0.00040340
O		6.09300012		9.17939401		2.89850021		 0.00010974		-0.00028755		 0.00040340
O		4.05199962		13.56559306		2.37150067		-0.00014686		 0.00008296		-0.00003263
O		15.16399927		5.07439764		2.89850021		 0.00014686		-0.00008296		 0.00003263
O		5.91399910		4.70439800		5.00650019		 0.00014686		-0.00008296		-0.00003263
O		13.30199979		13.93559270		0.26350069		-0.00014686		 0.00008296		 0.00003263
O		3.69399942		4.61559735		2.89850021		 0.00035874		 0.00007777		-0.00066075
O		15.52199947		14.02439335		2.37150067		-0.00035874		-0.00007777		 0.00066075
O		6.27199929		13.65439186		0.26350069		-0.00035874		-0.00007777		-0.00066075
O		12.94399960		4.98559698		5.00650019		 0.00035874		 0.00007777		 0.00066075
O		4.32291919		15.72099091		1.58100045		-0.00018505		-0.00008525		-0.00009572
O		14.89307970		2.91899979		3.68900043		 0.00018505		 0.00008525		 0.00009572
O		5.64307953		2.54899830		4.21599996		 0.00018505		 0.00008525		-0.00009572
O		13.57291936		16.09099055		1.05399906		-0.00018505		-0.00008525		 0.00009572
O		15.06491920		7.21499662		3.68900043		-0.00024860		 0.00049035		-0.00039717
O		4.15107969		11.42499408		1.58100045		 0.00024860		-0.00049035		 0.00039717
O		13.40107986		11.79499372		1.05399906		 0.00024860		-0.00049035		-0.00039717
O		5.81491903		6.84499513		4.21599996		-0.00024860		 0.00049035		 0.00039717
O		4.32291919		15.72099091		4.21599996		 0.00023778		 0.00016939		-0.00033996
O		14.89307970		2.91899979		1.05399906		-0.00023778		-0.00016939		 0.00033996
O		5.64307953		2.54899830		1.58100045		-0.00023778		-0.00016939		-0.00033996
O		13.57291936		16.09099055		3.68900043		 0.00023778		 0.00016939		 0.00033996
O		15.06491920		7.21499662		1.05399906		-0.00017910		-0.00008661		 0.00041776
O		4.15107969		11.42499408		4.21599996		 0.00017910		 0.00008661		-0.00041776
O		13.40107986		11.79499372		3.68900043		 0.00017910		 0.00008661		 0.00041776
O		5.81491903		6.84499513		1.58100045		-0.00017910		-0.00008661		-0.00041776
H		17.94500089		0.71780004		0.79050022		-0.00014781		-0.00033116		 0.00071156
H		0.55499945		0.02219924		4.47950065		 0.00014781		 0.00033116		-0.00071156
H		9.80499963		0.39220073		3.42549974		 0.00014781		 0.00033116		 0.00071156
H		8.69500072		0.34780040		1.84449929		-0.00014781		-0.00033116		-0.00071156
H		0.91299965		8.97219495		4.47950065		-0.00011898		-0.00016849		 0.00031715
H		18.30299924		9.66779390		0.79050022		 0.00011898		 0.00016849		-0.00031715
H		9.05299906		9.29779426		1.84449929		 0.00011898		 0.00016849		 0.00031715
H		10.16299797		9.34219459		3.42549974		-0.00011898		-0.00016849		-0.00031715
