# total energy = -92496.8746597 eV

CRYSTAL
PRIMVEC
		18.50000034		-0.73999927		0.00000000
		-0.71600410		17.89999143		0.00000000
		0.00000000		0.00000000		5.26999532
PRIMECORD
   164 1
Mg		2.28327953		2.94679790		2.00260082		 0.00009449		 0.00077053		-0.00006911
Mg		15.50072041		14.21319055		3.26740006		-0.00009449		-0.00077053		 0.00006911
Mg		6.25072024		14.58319019		4.63760033		-0.00009449		-0.00077053		-0.00006911
Mg		11.53327970		2.57679826		0.63240055		 0.00009449		 0.00077053		 0.00006911
Mg		15.61527885		11.34919452		3.26740006		-0.00030562		-0.00013280		-0.00081313
Mg		2.16871925		5.81079578		2.00260082		 0.00030562		 0.00013280		 0.00081313
Mg		11.41871942		5.44079615		0.63240055		 0.00030562		 0.00013280		-0.00081313
Mg		6.36528053		11.71919415		4.63760033		-0.00030562		-0.00013280		 0.00081313
Mg		2.34772027		1.33579978		4.58489982		-0.00045931		 0.00028711		-0.00063223
Mg		15.43627967		15.82419052		0.68509921		 0.00045931		-0.00028711		 0.00063223
Mg		6.18627950		16.19419016		1.94990031		 0.00045931		-0.00028711		-0.00063223
Mg		11.59772044		0.96579829		3.32010057		-0.00045931		 0.00028711		 0.00063223
Mg		15.67971959		9.73819455		0.68509921		-0.00050636		-0.00017717		-0.00022510
Mg		2.10428036		7.42179575		4.58489982		 0.00050636		 0.00017717		 0.00022510
Mg		11.35428053		7.05179612		3.32010057		 0.00050636		 0.00017717		-0.00022510
Mg		6.42971942		10.10819418		1.94990031		-0.00050636		-0.00017717		 0.00022510
Mg		1.70332028		17.44579021		2.00260082		 0.00011233		 0.00039583		-0.00012914
Mg		16.08067966		-0.28579991		3.26740006		-0.00011233		-0.00039583		 0.00012914
Mg		6.83067949		0.08419973		4.63760033		-0.00011233		-0.00039583		-0.00012914
Mg		10.95332046		17.07579057		0.63240055		 0.00011233		 0.00039583		 0.00012914
Mg		15.75132000		7.94819541		3.26740006		 0.00008249		 0.00001438		-0.00058173
Mg		2.03267995		9.21179490		2.00260082		-0.00008249		-0.00001438		 0.00058173
Mg		11.28268012		8.84179526		0.63240055		-0.00008249		-0.00001438		-0.00058173
Mg		6.50131983		8.31819504		4.63760033		 0.00008249		 0.00001438		 0.00058173
Mg		2.22600032		4.37879869		4.58489982		 0.00004134		 0.00054218		-0.00000471
Mg		15.55799963		12.78119346		0.68509921		-0.00004134		-0.00054218		 0.00000471
Mg		6.30799946		13.15119310		1.94990031		-0.00004134		-0.00054218		-0.00000471
Mg		11.47600049		4.00879720		3.32010057		 0.00004134		 0.00054218		 0.00000471
Si		-0.03211946		14.65579225		1.52829994		 0.00017171		 0.00009135		-0.00001145
Si		17.81612126		2.50419805		3.74169909		-0.00017171		-0.00009135		 0.00001145
Si		8.56611924		2.87419769		4.16329945		-0.00017171		-0.00009135		-0.00001145
Si		9.21788071		14.28579076		1.10669957		 0.00017171		 0.00009135		 0.00001145
Si		17.71588032		5.01019759		3.74169909		-0.00007825		 0.00013319		 0.00015163
Si		0.06811963		12.14979271		1.52829994		 0.00007825		-0.00013319		-0.00015163
Si		9.31811980		11.77979307		1.10669957		 0.00007825		-0.00013319		 0.00015163
Si		8.46588015		5.38019723		4.16329945		-0.00007825		 0.00013319		-0.00015163
Si		-0.10371987		16.44579139		4.16329945		 0.00015211		-0.00032745		-0.00006556
Si		17.88771982		0.71419891		1.10669957		-0.00015211		 0.00032745		 0.00006556
Si		8.63771965		1.08419854		1.52829994		-0.00015211		 0.00032745		-0.00006556
Si		9.14628030		16.07578990		3.74169909		 0.00015211		-0.00032745		 0.00006556
Si		17.64427991		6.80019673		1.10669957		 0.00042290		 0.00023141		 0.00019145
Si		0.13972004		10.35979357		4.16329945		-0.00042290		-0.00023141		-0.00019145
Si		9.38972021		9.98979393		3.74169909		-0.00042290		-0.00023141		 0.00019145
Si		8.39427974		7.17019637		1.52829994		 0.00042290		 0.00023141		-0.00019145
Si		3.41128038		16.30519005		0.21080018		-0.00005917		-0.00025788		-0.00010428
Si		14.37271957		0.85479840		5.05920070		 0.00005917		 0.00025788		 0.00010428
Si		5.12271940		1.22479989		2.84579970		 0.00005917		 0.00025788		-0.00010428
Si		12.66128055		15.93519041		2.42419933		-0.00005917		-0.00025788		 0.00010428
Si		14.12927966		6.94079623		5.05920070		 0.00010433		-0.00014040		 0.00004369
Si		3.65472029		10.21919408		0.21080018		-0.00010433		 0.00014040		-0.00004369
Si		12.90472046		9.84919444		2.42419933		-0.00010433		 0.00014040		 0.00004369
Si		4.87927948		7.31079586		2.84579970		 0.00010433		-0.00014040		-0.00004369
Si		3.48288079		14.51519091		2.84579970		-0.00002974		 0.00000288		-0.00023071
Si		14.30111916		2.64479754		2.42419933		 0.00002974		-0.00000288		 0.00023071
Si		5.05111899		3.01479718		0.21080018		 0.00002974		-0.00000288		-0.00023071
Si		12.73288096		14.14519127		5.05920070		-0.00002974		 0.00000288		 0.00023071
Si		14.20088007		5.15079708		2.42419933		-0.00014146		-0.00009383		 0.00016535
Si		3.58311988		12.00919322		2.84579970		 0.00014146		 0.00009383		-0.00016535
Si		12.83312005		11.63919358		5.05920070		 0.00014146		 0.00009383		 0.00016535
Si		4.95087990		5.52079672		0.21080018		-0.00014146		-0.00009383		-0.00016535
O		1.05987936		1.20859944		1.05399906		-0.00015671		 0.00022833		-0.00008144
O		16.72411873		15.95139086		4.21599996		 0.00015671		-0.00022833		 0.00008144
O		7.47412041		16.32139049		3.68900043		 0.00015671		-0.00022833		-0.00008144
O		10.30987954		0.83859981		1.58100045		-0.00015671		 0.00022833		 0.00008144
O		16.98187984		9.50739468		4.21599996		-0.00033770		-0.00001608		-0.00072842
O		0.80212011		7.65259562		1.05399906		 0.00033770		 0.00001608		 0.00072842
O		10.05212028		7.28259598		1.58100045		 0.00033770		 0.00001608		-0.00072842
O		7.73187967		9.87739432		3.68900043		-0.00033770		-0.00001608		 0.00072842
O		0.98111928		3.17759776		3.68900043		-0.00006175		 0.00018379		-0.00011228
O		16.80287881		13.98239254		1.58100045		 0.00006175		-0.00018379		 0.00011228
O		7.55288049		14.35239218		1.05399906		 0.00006175		-0.00018379		-0.00011228
O		10.23111945		2.80759812		4.21599996		-0.00006175		 0.00018379		 0.00011228
O		16.90311976		11.47639300		1.58100045		 0.00031164		-0.00007203		 0.00014586
O		0.88088019		5.68359730		3.68900043		-0.00031164		 0.00007203		-0.00014586
O		10.13088036		5.31359766		4.21599996		-0.00031164		 0.00007203		 0.00014586
O		7.65311958		11.84639264		1.05399906		 0.00031164		-0.00007203		-0.00014586
O		0.57299954		13.38059324		1.05399906		-0.00009188		-0.00003686		 0.00007215
O		17.21100041		3.77939706		4.21599996		 0.00009188		 0.00003686		-0.00007215
O		7.96100024		4.14939855		3.68900043		 0.00009188		 0.00003686		 0.00007215
O		9.82299971		13.01059361		1.58100045		-0.00009188		-0.00003686		-0.00007215
O		0.93099974		4.43059753		1.05399906		-0.00015741		-0.00046706		 0.00030079
O		16.85300021		12.72939277		4.21599996		 0.00015741		 0.00046706		-0.00030079
O		7.60300004		13.09939241		3.68900043		 0.00015741		 0.00046706		 0.00030079
O		10.18099991		4.06059789		1.58100045		-0.00015741		-0.00046706		-0.00030079
O		1.11000076		-0.04440033		3.68900043		 0.00008116		-0.00029638		-0.00027599
O		17.38999958		-0.69560080		1.58100045		-0.00008116		 0.00029638		 0.00027599
O		8.13999941		-0.32559931		1.05399906		-0.00008116		 0.00029638		-0.00027599
O		10.35999908		-0.41439996		4.21599996		 0.00008116		-0.00029638		 0.00027599
O		17.03199938		8.25439491		1.58100045		 0.00015214		 0.00004692		 0.00033543
O		0.75200056		8.90559539		3.68900043		-0.00015214		-0.00004692		-0.00033543
O		10.00199888		8.53559390		4.21599996		-0.00015214		-0.00004692		 0.00033543
O		7.78199921		8.62439455		1.05399906		 0.00015214		 0.00004692		-0.00033543
O		0.30207997		15.53599110		0.26350069		 0.00010133		-0.00017859		-0.00012675
O		17.48191998		1.62399921		5.00650019		-0.00010133		 0.00017859		 0.00012675
O		8.23191981		1.99399884		2.89850021		-0.00010133		 0.00017859		-0.00012675
O		9.55208014		15.16599146		2.37150067		 0.00010133		-0.00017859		 0.00012675
O		17.31008048		5.91999604		5.00650019		 0.00000275		 0.00046027		 0.00029520
O		0.47391947		11.23999426		0.26350069		-0.00000275		-0.00046027		-0.00029520
O		9.72391964		10.86999463		2.37150067		-0.00000275		-0.00046027		 0.00029520
O		8.06008030		6.28999567		2.89850021		 0.00000275		 0.00046027		-0.00029520
O		0.30207997		15.53599110		2.84579970		-0.00000271		 0.00022790		-0.00031437
O		17.48191998		1.62399921		2.42419933		 0.00000271		-0.00022790		 0.00031437
O		8.23191981		1.99399884		0.21080018		 0.00000271		-0.00022790		-0.00031437
O		9.55208014		15.16599146		5.05920070		-0.00000271		 0.00022790		 0.00031437
O		17.31008048		5.91999604		2.42419933		 0.00016365		 0.00029089		 0.00004153
O		0.47391947		11.23999426		2.84579970		-0.00016365		-0.00029089		-0.00004153
O		9.72391964		10.86999463		5.05920070		-0.00016365		-0.00029089		 0.00004153
O		8.06008030		6.28999567		0.21080018		 0.00016365		 0.00029089		-0.00004153
O		3.38612062		3.08139859		0.26350069		 0.00005308		-0.00017849		 0.00027041
O		14.39787932		14.07859171		5.00650019		-0.00005308		 0.00017849		-0.00027041
O		5.14787915		14.44859134		2.89850021		-0.00005308		 0.00017849		 0.00027041
O		12.63611894		2.71139711		2.37150067		 0.00005308		-0.00017849		-0.00027041
O		14.49812027		11.57259217		5.00650019		-0.00008527		 0.00056430		-0.00010393
O		3.28587968		5.58739628		0.26350069		 0.00008527		-0.00056430		 0.00010393
O		12.53587985		5.21739665		2.37150067		 0.00008527		-0.00056430		-0.00010393
O		5.24812010		11.94259365		2.89850021		-0.00008527		 0.00056430		 0.00010393
O		3.46488070		1.11239843		2.95120071		 0.00009097		 0.00006439		-0.00004916
O		14.31911924		16.04759002		2.31880016		-0.00009097		-0.00006439		 0.00004916
O		5.06911907		16.41759151		0.31619935		-0.00009097		-0.00006439		-0.00004916
O		12.71487902		0.74239879		4.95379968		 0.00009097		 0.00006439		 0.00004916
O		14.57688035		9.60359385		2.31880016		-0.00036052		-0.00053639		-0.00030757
O		3.20711960		7.55639645		2.95120071		 0.00036052		 0.00053639		 0.00030757
O		12.45711977		7.18639496		4.95379968		 0.00036052		 0.00053639		-0.00030757
O		5.32688018		9.97359349		0.31619935		-0.00036052		-0.00053639		 0.00030757
O		3.51500025		-0.14059949		0.26350069		-0.00010972		-0.00028764		 0.00040346
O		14.98500009		-0.59939978		5.00650019		 0.00010972		 0.00028764		-0.00040346
O		5.73499992		-0.22940014		2.89850021		 0.00010972		 0.00028764		 0.00040346
O		12.76500042		-0.51059913		2.37150067		-0.00010972		-0.00028764		-0.00040346
O		14.62699989		8.35059408		5.00650019		-0.00032483		 0.00008648		 0.00016275
O		3.15700005		8.80939437		0.26350069		 0.00032483		-0.00008648		-0.00016275
O		12.40700022		8.43939473		2.37150067		 0.00032483		-0.00008648		 0.00016275
O		5.37699972		8.72059557		2.89850021		-0.00032483		 0.00008648		-0.00016275
O		2.97799903		13.28439223		2.37150067		-0.00014678		-0.00008317		-0.00003251
O		14.80599907		3.87559807		2.89850021		 0.00014678		 0.00008317		 0.00003251
O		5.55600075		4.24559771		5.00650019		 0.00014678		 0.00008317		-0.00003251
O		12.22799920		12.91439259		0.26350069		-0.00014678		-0.00008317		 0.00003251
O		3.33599923		4.33439836		2.89850021		 0.00035883		-0.00007769		-0.00066084
O		14.44799887		12.82559194		2.37150067		-0.00035883		 0.00007769		 0.00066084
O		5.19800055		13.19559342		0.26350069		-0.00035883		 0.00007769		-0.00066084
O		12.58599940		3.96439873		5.00650019		 0.00035883		-0.00007769		 0.00066084
O		3.07707909		15.42499120		1.58100045		 0.00024865		 0.00049043		 0.00039709
O		14.70691900		1.73499910		3.68900043		-0.00024865		-0.00049043		-0.00039709
O		5.45692068		2.10499873		4.21599996		-0.00024865		-0.00049043		 0.00039709
O		12.32707927		15.05499157		1.05399906		 0.00024865		 0.00049043		-0.00039709
O		14.53507950		6.03099593		3.68900043		 0.00018509		-0.00008506		 0.00009586
O		3.24892045		11.12899437		1.58100045		-0.00018509		 0.00008506		-0.00009586
O		12.49892062		10.75899289		1.05399906		-0.00018509		 0.00008506		 0.00009586
O		5.28507933		6.40099556		4.21599996		 0.00018509		-0.00008506		-0.00009586
O		3.07707909		15.42499120		4.21599996		 0.00017903		-0.00008659		-0.00041771
O		14.70691900		1.73499910		1.05399906		-0.00017903		 0.00008659		 0.00041771
O		5.45692068		2.10499873		1.58100045		-0.00017903		 0.00008659		-0.00041771
O		12.32707927		15.05499157		3.68900043		 0.00017903		-0.00008659		 0.00041771
O		14.53507950		6.03099593		1.05399906		-0.00023762		 0.00016966		 0.00033949
O		3.24892045		11.12899437		4.21599996		 0.00023762		-0.00016966		-0.00033949
O		12.49892062		10.75899289		3.68900043		 0.00023762		-0.00016966		 0.00033949
O		5.28507933		6.40099556		1.58100045		-0.00023762		 0.00016966		-0.00033949
H		17.94500089		-0.71780004		0.79050022		 0.00011917		-0.00016877		-0.00031702
H		0.55499945		-0.02219924		4.47950065		-0.00011917		 0.00016877		 0.00031702
H		9.80499963		-0.39220073		3.42549974		-0.00011917		 0.00016877		-0.00031702
H		8.69500072		-0.34780040		1.84449929		 0.00011917		-0.00016877		 0.00031702
H		0.19699926		8.92779462		4.47950065		 0.00014780		-0.00033117		-0.00071151
H		17.58700069		8.23219568		0.79050022		-0.00014780		 0.00033117		 0.00071151
H		8.33700052		8.60219531		1.84449929		-0.00014780		 0.00033117		-0.00071151
H		9.44699943		8.55779499		3.42549974		 0.00014780		-0.00033117		 0.00071151
