# total energy = -35732.5895452 eV

CRYSTAL
PRIMVEC
		7.86030298		0.00000000		-1.25765198
		-3.93014751		6.80722214		0.62882201
		-1.53167652		0.00000000		9.57299619
PRIMECORD
   46 1
Mg		0.54779595		3.09524271		3.51013628		 0.00074562		-0.00036463		 0.00002083
Mg		0.08954037		6.24562387		3.58345679		 0.00018152		 0.00068005		-0.00050596
Mg		-2.40964164		4.27357213		3.98332614		 0.00032045		 0.00048923		-0.00028941
Mg		1.43497589		3.71197704		8.03215181		 0.00032057		 0.00011816		 0.00006888
Mg		1.89323226		0.56159509		7.95883130		-0.00076056		 0.00039362		 0.00039876
Mg		4.39241507		2.53364682		7.55896196		-0.00011788		 0.00003573		 0.00013050
Mg		0.63934868		1.65959975		0.94896203		 0.00036836		 0.00054810		-0.00010805
Mg		1.91428879		6.68060519		0.74497199		-0.00028808		-0.00079185		 0.00084450
Mg		-3.07149880		5.27423376		1.54269832		-0.00027927		 0.00030318		-0.00013151
Mg		2.17972101		5.14762000		5.36646789		-0.00005823		 0.00004451		-0.00044118
Mg		0.90478011		0.12661376		5.57045792		 0.00060724		 0.00023725		-0.00043721
Mg		5.89056769		1.53298599		4.77273239		 0.00034522		-0.00010455		-0.00080930
Mg		-0.15761028		4.53814624		0.98506188		-0.00063212		 0.00030451		 0.00018191
Mg		3.00669976		2.26907272		5.14273796		 0.00012291		-0.00011789		 0.00087140
Si		3.66348463		2.26907272		1.03783532		-0.00000702		 0.00002700		-0.00051604
Si		-1.03250512		4.53814624		6.45315941		-0.00029013		-0.00000302		 0.00015829
Si		-0.61542885		0.00000000		3.84643088		 0.00001607		 0.00045613		-0.00000356
Si		-1.38126870		0.00000000		8.63293216		 0.00004370		 0.00002577		 0.00006418
O		-0.02976029		0.18651803		9.10882214		 0.00026295		-0.00023471		 0.00040771
O		5.47127129		1.17560701		8.22865839		 0.00002264		-0.00014469		-0.00067676
O		1.86417964		5.44509472		8.80579194		 0.00085431		-0.00032520		-0.00015845
O		1.73591014		6.62070173		4.16235036		 0.00039916		-0.00013547		 0.00036315
O		-3.76512064		5.63161275		5.04251490		-0.00000455		 0.00017542		 0.00002800
O		-0.15802899		1.36212503		4.46537976		-0.00008082		 0.00054444		-0.00009967
O		2.61597439		0.67255338		4.09989403		 0.00071660		 0.00015963		 0.00007175
O		4.85694574		2.57176699		3.74133932		-0.00032043		 0.00004536		 0.00017704
O		2.09169230		3.56289938		4.18377942		 0.00012876		 0.00027090		 0.00055427
O		-0.93555612		6.13466637		9.33210470		 0.00062866		-0.00055291		-0.00010186
O		-3.17652827		4.23545196		9.69066021		 0.00007634		 0.00037525		 0.00023744
O		-0.41127403		3.24432117		9.24822011		-0.00023383		-0.00040073		 0.00044201
O		2.05343919		2.00608828		1.83552981		-0.00017616		 0.00000525		-0.00023984
O		4.56323305		1.08302900		1.43396334		 0.00020742		-0.00004716		-0.00051014
O		4.10772933		3.71810407		1.50684285		-0.00022854		-0.00050209		-0.00014911
O		0.40017184		4.80113227		6.76401774		-0.00038222		-0.00026719		-0.00037580
O		-2.10962282		5.72419076		7.16558501		-0.00072185		 0.00022293		-0.00035550
O		-1.65411831		3.08911569		7.09270391		-0.00002619		 0.00004143		-0.00019167
O		-0.74419825		2.97271336		2.35590978		 0.00008108		 0.00016931		 0.00004375
O		1.17685916		4.99445712		2.04854123		-0.00001413		-0.00025366		-0.00033033
O		-1.53455098		5.64726902		2.48236593		 0.00001612		-0.00041273		 0.00042126
O		3.17391412		3.83450718		6.39297733		 0.00003068		-0.00005192		 0.00011467
O		1.25285671		1.81276263		6.70034588		-0.00053745		 0.00049037		 0.00062260
O		3.96426764		1.15994994		6.26652039		-0.00021803		-0.00054628		 0.00029982
O		3.93014990		2.26907272		-0.62882440		-0.00024466		 0.00034970		-0.00033167
O		-0.76583985		4.53814624		4.78649969		 0.00005760		-0.00026745		 0.00009485
O		-0.35580922		0.00000000		2.22380820		-0.00057455		-0.00058495		 0.00040797
O		-1.12164907		0.00000000		7.01030789		-0.00035727		-0.00040420		-0.00026250
