# total energy = -35734.1480779 eV

CRYSTAL
PRIMVEC
		7.86030088		0.00000000		0.94323421
		-3.93014648		6.80722258		-0.47162106
		1.14875943		0.00000000		9.57299791
PRIMECORD
   46 1
Mg		1.58164096		3.09524270		3.82893395		 0.00034013		-0.00015307		-0.00047054
Mg		1.12338564		6.24562357		3.77394303		-0.00043171		 0.00002891		-0.00034031
Mg		-1.37579669		4.27357176		3.47404055		 0.00028868		 0.00028528		 0.00032664
Mg		3.80904168		3.71197671		8.81379591		-0.00023413		 0.00015852		 0.00019528
Mg		4.26729779		0.56159505		8.86878683		-0.00010994		-0.00036040		-0.00034633
Mg		6.76647932		2.53364685		9.16868852		-0.00005673		-0.00014622		-0.00037445
Mg		0.94143395		1.65959978		1.17631269		 0.00013214		-0.00029389		-0.00034446
Mg		2.21637515		6.68060460		1.32930591		 0.00061884		-0.00046264		 0.00001283
Mg		-2.76941305		5.27423365		0.73101225		-0.00024215		 0.00022342		 0.00017989
Mg		3.82202585		5.14761963		6.23955859		 0.00042611		 0.00004215		 0.00007057
Mg		2.54708623		0.12661402		6.08656536		 0.00051573		 0.00001995		 0.00026558
Mg		7.53287364		1.53298576		6.68485982		 0.00044938		 0.00033902		-0.00031491
Mg		0.11820729		4.53814601		0.98506204		-0.00021960		 0.00006616		-0.00020967
Mg		4.62273665		2.26907261		6.24317969		-0.00006344		-0.00003163		 0.00043169
Si		4.13014902		2.26907261		2.13827699		-0.00003986		-0.00021857		 0.00029389
Si		0.77437909		4.53814601		6.45315884		-0.00012797		 0.00011128		 0.00009698
Si		0.46157161		0.00000000		3.84643063		-0.00013501		 0.00003851		-0.00048109
Si		1.03595212		0.00000000		8.63293117		-0.00004379		 0.00000389		 0.00025474
O		2.58634985		0.18651804		9.51906624		-0.00002798		 0.00068254		 0.00003914
O		8.08738088		1.17560731		10.17919085		 0.00032333		-0.00011522		 0.00069462
O		4.48028845		5.44509485		9.74633941		 0.00025189		-0.00046936		-0.00013787
O		3.01179998		6.62070137		4.85254712		 0.00013609		-0.00010076		 0.00044312
O		-2.48923105		5.63161289		4.19242251		 0.00014318		 0.00042317		-0.00013625
O		1.11786059		1.36212456		4.62527395		-0.00022573		-0.00018874		 0.00015526
O		3.91437881		0.67255302		5.04011175		-0.00023446		 0.00029072		-0.00020443
O		6.15535033		2.57176652		5.30902751		 0.00003899		 0.00027553		 0.00030734
O		3.39009750		3.56289908		4.97719780		-0.00025105		-0.00069078		-0.00006555
O		1.70306875		6.13466560		9.49232841		 0.00016904		-0.00061160		 0.00030346
O		-0.53790198		4.23545210		9.22341186		 0.00009270		-0.00026855		 0.00032362
O		2.22735085		3.24432112		9.55524235		-0.00043844		 0.00083235		-0.00053081
O		2.67530101		2.00608804		2.50999099		-0.00036871		-0.00014475		 0.00027787
O		5.18509487		1.08302873		2.81116568		 0.00003961		-0.00023289		 0.00025747
O		4.72959061		3.71810344		2.75650489		 0.00026336		-0.00003205		-0.00005592
O		2.36225365		4.80113138		7.18999857		-0.00028319		 0.00029715		 0.00009383
O		-0.14754021		5.72419068		6.88882387		 0.00001442		 0.00005033		-0.00026321
O		0.30796405		3.08911597		6.94348467		-0.00079650		 0.00019568		-0.00013103
O		-0.10142865		2.97271290		2.25037655		 0.00043959		-0.00001023		-0.00019339
O		1.81962858		4.99445698		2.48090348		-0.00033122		-0.00016815		 0.00004147
O		-0.89178204		5.64726894		2.15553459		 0.00032610		 0.00002919		 0.00001796
O		5.15690353		3.83450651		7.59895031		-0.00042171		 0.00044096		 0.00004932
O		3.23584710		1.81276322		7.36842338		-0.00043956		 0.00010937		-0.00009122
O		5.94725772		1.15994968		7.69379386		 0.00022024		 0.00004288		-0.00021557
O		3.93014965		2.26907261		0.47161789		 0.00021075		-0.00040884		 0.00013967
O		0.57437972		4.53814601		4.78649975		-0.00027691		 0.00035214		 0.00023067
O		0.26685663		0.00000000		2.22380813		 0.00012048		 0.00010811		-0.00070256
O		0.84123714		0.00000000		7.01030788		 0.00023903		-0.00033885		 0.00010667
