# total energy = -35731.2524116 eV

CRYSTAL
PRIMVEC
		7.86030040		0.00000000		-0.31441170
		-3.93014626		6.80721629		0.15720585
		-0.38292180		0.00000000		9.57299772
PRIMECORD
   46 1
Mg		0.99087200		3.09524270		3.64676274		 0.00165120		-0.00215439		-0.00121635
Mg		0.53261663		6.24562387		3.66509424		 0.00408161		-0.00098018		 0.00173852
Mg		-1.96656621		4.27357229		3.76506124		 0.00050824		-0.00153235		-0.00004154
Mg		2.45243330		3.71197673		8.36714295		-0.00024491		 0.00151638		-0.00315026
Mg		2.91068866		0.56159477		8.34881223		-0.00304097		-0.00169148		 0.00102874
Mg		5.40987072		2.53364714		8.24884523		-0.00166667		 0.00399069		-0.00005786
Mg		0.76881402		1.65960023		1.04639830		 0.00115735		 0.00388028		 0.00078734
Mg		2.04375472		6.68060516		0.99540079		 0.00059485		 0.00199800		 0.00183712
Mg		-2.94203386		5.27423426		1.19483212		-0.00229768		-0.00236031		 0.00073766
Mg		2.88356625		5.14761999		5.74065043		 0.00185535		-0.00253158		 0.00237536
Mg		1.60862476		0.12661427		5.79164714		-0.00051212		-0.00078810		-0.00165259
Mg		6.59441413		1.53298596		5.59221582		-0.00234958		 0.00158471		 0.00528096
Mg		-0.03940215		4.53814603		0.98506174		 0.00466963		-0.00114916		 0.00047050
Mg		3.69928714		2.26907341		5.61435632		 0.00122586		 0.00553933		 0.00116498
Si		3.86348403		2.26907341		1.50945307		 0.00209094		 0.00156433		 0.00354426
Si		-0.25812628		4.53814603		6.45315935		 0.00206356		-0.00097893		-0.00172504
Si		-0.15385705		0.00000000		3.84643085		-0.00389849		 0.00092988		-0.00050424
Si		-0.34531716		0.00000000		8.63293207		 0.00140846		-0.00062311		-0.00175239
O		1.09142978		0.18651832		9.28464173		-0.00263066		-0.00147112		-0.00139648
O		6.59246086		1.17560697		9.06459995		 0.00096983		-0.00140204		 0.00128912
O		2.98536931		5.44509493		9.20888415		-0.00057765		-0.00064421		 0.00013686
O		2.28272036		6.62070190		4.45814836		-0.00281093		 0.00130386		 0.00117533
O		-3.21831072		5.63161325		4.67819013		 0.00208099		 0.00000948		-0.00139593
O		0.38878083		1.36212529		4.53390594		 0.00493457		-0.00269280		-0.00262928
O		3.17243436		0.67255297		4.50284394		-0.00110943		-0.00082721		 0.00066775
O		5.41340518		2.57176704		4.41320577		 0.00179870		-0.00152473		-0.00141836
O		2.64815238		3.56289864		4.52381625		-0.00126287		-0.00257759		 0.00335038
O		0.19528327		6.13466568		9.40077220		-0.00176529		 0.00370091		 0.00032586
O		-2.04568833		4.23545239		9.49041116		-0.00097574		 0.00127976		 0.00173251
O		0.71956526		3.24432079		9.37980146		-0.00096770		-0.00005954		 0.00073056
O		2.31995134		2.00608794		2.12458389		-0.00417455		-0.00014893		-0.00196201
O		4.82974542		1.08302905		2.02419288		-0.00187723		 0.00102940		-0.00004865
O		4.37424099		3.71810402		2.04241268		-0.00113568		 0.00083712		-0.00154327
O		1.24106404		4.80113228		6.94658072		-0.00004790		-0.00107173		-0.00245170
O		-1.26873004		5.72419117		7.04697330		 0.00250431		-0.00142260		-0.00316257
O		-0.81322640		3.08911620		7.02875272		 0.00046077		-0.00556860		 0.00104803
O		-0.46872579		2.97271276		2.31068214		 0.00189457		 0.00409664		 0.00009258
O		1.45233222		4.99445678		2.23383897		-0.00201886		 0.00025514		 0.00010847
O		-1.25907931		5.64726933		2.34229637		-0.00101133		 0.00059463		-0.00425765
O		4.02376729		3.83450667		6.90982331		-0.00223729		 0.00232431		-0.00343698
O		2.10271006		1.81276266		6.98666491		-0.00140309		-0.00020367		 0.00063951
O		4.81412080		1.15995010		6.87820908		-0.00025171		-0.00285322		-0.00032910
O		3.93015020		2.26907341		-0.15720585		 0.00076856		-0.00216350		 0.00441755
O		-0.19146011		4.53814603		4.78650043		 0.00186451		 0.00047330		-0.00028009
O		-0.08895221		0.00000000		2.22380829		 0.00102178		 0.00084933		 0.00133413
O		-0.28041232		0.00000000		7.01030793		 0.00066268		 0.00166359		-0.00160172
