# total energy = -24716.6163081 eV

CRYSTAL
PRIMVEC
		9.38498807		0.00000000		-0.00000927
		0.00000000		8.90546165		0.00000000
		0.00000000		0.00000000		5.38624529
PRIMECORD
   40 1
Mg		0.00000000		8.00932096		1.34656225		 0.00000003		-0.00022836		-0.00000003
Mg		0.00000000		0.89614069		4.03968675		-0.00000005		 0.00022848		 0.00000009
Mg		4.69248940		5.34889191		4.03968304		-0.00000003		 0.00016084		-0.00000008
Mg		4.69249125		3.55656974		1.34655854		-0.00000004		-0.00016093		 0.00000005
Mg		0.00000000		2.31576462		1.34656225		 0.00000002		 0.00000638		-0.00000009
Mg		0.00000000		6.58969795		4.03968675		-0.00000004		-0.00000645		 0.00000002
Mg		4.69248940		2.13694395		4.03968304		-0.00000006		 0.00006904		-0.00000003
Mg		4.69249125		6.76851863		1.34655854		 0.00000003		-0.00006910		 0.00000005
Si		2.74326376		0.80150305		0.34321874		 0.00044678		 0.00091921		-0.00029055
Si		6.64171689		8.10395860		5.04302284		-0.00044654		-0.00091859		 0.00029052
Si		1.94899937		3.65108404		3.03633025		 0.00035487		-0.00042052		-0.00024051
Si		7.43598221		5.25437760		2.34991225		-0.00035458		 0.00042032		 0.00024053
Si		6.64171968		0.80150305		2.34989834		-0.00044650		 0.00091895		 0.00029051
Si		2.74326191		8.10395860		3.03634324		 0.00044640		-0.00091834		-0.00029051
Si		7.43598035		3.65108404		5.04303582		-0.00035437		-0.00042099		 0.00024064
Si		1.94900123		5.25437760		0.34320576		 0.00035475		 0.00042021		-0.00024056
O		1.11268659		0.83493200		0.40816730		-0.00031054		 0.00030395		 0.00007547
O		8.27229406		8.07052964		4.97807427		 0.00031063		-0.00030405		-0.00007535
O		3.57992893		3.61780716		3.10129273		-0.00013466		-0.00033220		 0.00006724
O		5.80505266		5.28765541		2.28494978		 0.00013461		 0.00033226		-0.00006724
O		8.27229685		0.83493200		2.28494978		 0.00031025		 0.00030392		-0.00007542
O		1.11268473		8.07052964		3.10129180		-0.00031038		-0.00030395		 0.00007543
O		5.80505080		3.61780624		4.97807427		 0.00013464		-0.00033219		-0.00006734
O		3.57993078		5.28765448		0.40816823		-0.00013498		 0.00033230		 0.00006734
O		3.55271765		2.19113560		0.35819774		 0.00003396		-0.00005254		 0.00015191
O		5.83226301		6.71432605		5.02804384		-0.00003412		 0.00005224		-0.00015184
O		1.13986912		2.26173618		3.05131667		-0.00037669		-0.00044219		 0.00017865
O		8.24511153		6.64372547		2.33492583		 0.00037670		 0.00044221		-0.00017879
O		5.83226579		2.19113560		2.33492027		-0.00003407		-0.00005237		-0.00015192
O		3.55271579		6.71432605		3.05132223		 0.00003423		 0.00005204		 0.00015184
O		8.24511061		2.26173618		5.02805033		 0.00037639		-0.00044165		-0.00017871
O		1.13987097		6.64372547		0.35819217		-0.00037668		 0.00044218		 0.00017877
O		3.26701315		8.69154006		1.55178928		 0.00011496		-0.00014837		-0.00038249
O		6.11796843		0.21392159		3.83445229		-0.00011486		 0.00014813		 0.00038266
O		1.42550407		4.66665705		4.24492769		-0.00021666		 0.00013496		-0.00042582
O		7.95947751		4.23880460		1.14131481		 0.00021653		-0.00013480		 0.00042602
O		6.11796936		8.69154006		1.14132872		-0.00011489		-0.00014825		 0.00038260
O		3.26701129		0.21392252		4.24491378		 0.00011476		 0.00014798		-0.00038279
O		7.95947473		4.66665612		3.83443931		 0.00021660		 0.00013500		 0.00042584
O		1.42550592		4.23880460		1.55180319		-0.00021642		-0.00013478		-0.00042611
