# total energy = -49444.1420135 eV	

CRYSTAL	
PRIMVEC	
		12.97219961		0.00000000		0.00000000	
		0.00000000		5.10899704		0.00000000	
		0.00000000		0.00000000		8.73300153	
PRIMCOORD
   70 1	
Mg		2.24548775		1.67524153		0.04628481		-0.00062782		 0.00046560		-0.00079379	
Mg		10.72671186		3.43375940		0.04628481		 0.00062782		-0.00046560		-0.00079379	
Mg		8.73158756		0.87925958		4.41278427		-0.00062782		-0.00046560		-0.00079379	
Mg		4.24061205		4.22974135		4.41278427		 0.00062782		 0.00046560		-0.00079379	
Mg		2.30256543		4.27010175		1.53002165		-0.00056971		-0.00005544		-0.00035650	
Mg		10.66963418		0.83889788		1.53002165		 0.00056971		 0.00005544		-0.00035650	
Mg		8.78866524		3.39339770		5.89652112		-0.00056971		 0.00005544		-0.00035650	
Mg		4.18353437		1.71560194		5.89652112		 0.00056971		-0.00005544		-0.00035650	
Mg		4.20299267		1.76822496		2.83123835		-0.00022869		-0.00085831		 0.00078998	
Mg		8.76920694		3.34077467		2.83123835		 0.00022869		 0.00085831		 0.00078998	
Mg		10.68909248		0.78627485		7.19773911		-0.00022869		 0.00085831		 0.00078998	
Mg		2.28310713		4.32272478		7.19773911		 0.00022869		-0.00085831		 0.00078998	
Mg		0.00000000		2.55449982		7.23616406		0.00000000		0.00000000		 0.00014891	
Mg		6.48609980		0.00000000		2.86966330		0.00000000		0.00000000		 0.00014891	
Mg		0.00000000		2.55449982		1.63307151		0.00000000		0.00000000		-0.00068865	
Mg		6.48609980		0.00000000		5.99957097		0.00000000		0.00000000		-0.00068865	
Mg		0.00000000		0.00000000		5.78561270		0.00000000		0.00000000		-0.00003314	
Mg		6.48609980		2.55449982		1.41911323		0.00000000		0.00000000		-0.00003314	
Mg		0.00000000		0.00000000		3.01725061		0.00000000		0.00000000		 0.00022422	
Mg		6.48609980		2.55449982		7.38375137		0.00000000		0.00000000		 0.00022422	
Si		0.00000000		0.00000000		0.06724399		0.00000000		0.00000000		 0.00000132	
Si		6.48609980		2.55449982		4.43374346		0.00000000		0.00000000		 0.00000132	
Si		4.88533037		0.07203722		0.04453745		-0.00018204		-0.00004723		-0.00001410	
Si		8.08686924		5.03696241		0.04453745		 0.00018204		 0.00004723		-0.00001410	
Si		11.37143018		2.48246260		4.41103822		-0.00018204		 0.00004723		-0.00001410	
Si		1.60076943		2.62653704		4.41103822		 0.00018204		-0.00004723		-0.00001410	
O		5.38735450		3.62125827		8.67710821		 0.00000120		-0.00035804		 0.00049740	
O		7.58484511		1.48774136		8.67710821		-0.00000120		 0.00035804		 0.00049740	
O		11.87345430		4.04224118		4.31060874		 0.00000120		 0.00035804		 0.00049740	
O		1.09874531		1.06675846		4.31060874		-0.00000120		-0.00035804		 0.00049740	
O		1.01572323		3.54104727		0.04366442		 0.00001564		-0.00059514		-0.00022874	
O		11.95647638		1.56795236		0.04366442		-0.00001564		 0.00059514		-0.00022874	
O		7.50182303		4.12245218		4.41016519		 0.00001564		 0.00059514		-0.00022874	
O		5.47037658		0.98654746		4.41016519		-0.00001564		-0.00059514		-0.00022874	
O		3.23656380		0.11239762		3.01375849		-0.00086178		-0.00002922		 0.00002470	
O		9.73563581		4.99660201		3.01375849		 0.00086178		 0.00002922		 0.00002470	
O		9.72266361		2.44210219		7.38025796		-0.00086178		 0.00002922		 0.00002470	
O		3.24953600		2.66689744		7.38025796		 0.00086178		-0.00002922		 0.00002470	
O		3.31050534		2.61580773		1.41474549		 0.00005167		-0.00041358		 0.00047005	
O		9.66169427		2.49319190		1.41474549		-0.00005167		 0.00041358		 0.00047005	
O		9.79660514		5.04769172		5.78124626		 0.00005167		 0.00041358		 0.00047005	
O		3.17559446		0.06130791		5.78124626		-0.00005167		-0.00041358		 0.00047005	
O		0.98588717		0.73569625		1.33702256		-0.00037597		 0.00019838		 0.00020185	
O		11.98631244		4.37330338		1.33702256		 0.00037597		-0.00019838		 0.00020185	
O		7.47198697		1.81880357		5.70352203		-0.00037597		-0.00019838		 0.00020185	
O		5.50021263		3.29019606		5.70352203		 0.00037597		 0.00019838		 0.00020185	
O		5.57545139		3.30552272		3.16047277		 0.00036322		-0.00017908		 0.00001357	
O		7.39674822		1.80347691		3.16047277		-0.00036322		 0.00017908		 0.00001357	
O		12.06155120		4.35797673		7.52697224		 0.00036322		 0.00017908		 0.00001357	
O		0.91064841		0.75102290		7.52697224		-0.00036322		-0.00017908		 0.00001357	
O		5.37697674		0.78167751		1.39640670		 0.00040080		 0.00075415		-0.00043986	
O		7.59522287		4.32732342		1.39640670		-0.00040080		-0.00075415		-0.00043986	
O		11.86307654		1.77282231		5.76290746		 0.00040080		-0.00075415		-0.00043986	
O		1.10912307		3.33617732		5.76290746		-0.00040080		 0.00075415		-0.00043986	
O		1.15322855		3.49966466		3.03821109		-0.00001414		-0.00056632		-0.00061200	
O		11.81897106		1.60933498		3.03821109		 0.00001414		 0.00056632		-0.00061200	
O		7.63932835		4.16383479		7.40471055		-0.00001414		 0.00056632		-0.00061200	
O		5.33287126		0.94516484		7.40471055		 0.00001414		-0.00056632		-0.00061200	
O		3.37017746		0.02452265		0.06113149		 0.00022440		-0.00009124		-0.00007452	
O		9.60202215		5.08447699		0.06113149		-0.00022440		 0.00009124		-0.00007452	
O		9.85627726		2.52997717		4.42763096		 0.00022440		 0.00009124		-0.00007452	
O		3.11592235		2.57902246		4.42763096		-0.00022440		-0.00009124		-0.00007452	
H		3.89165988		3.06539952		0.87330015		-0.00044429		-0.00063449		 0.00047197	
H		9.08053973		2.04360011		0.87330015		 0.00044429		 0.00063449		 0.00047197	
H		10.37775969		4.59809993		5.23979962		-0.00044429		 0.00063449		 0.00047197	
H		2.59443992		0.51089970		5.23979962		 0.00044429		-0.00063449		 0.00047197	
H		3.50249389		0.91961999		3.92985004		 0.00061041		-0.00051770		 0.00022366	
H		9.46970571		4.18937965		3.92985004		-0.00061041		 0.00051770		 0.00022366	
H		9.98859370		1.63487983		8.29634950		 0.00061041		 0.00051770		 0.00022366	
H		2.98360591		3.47411980		8.29634950		-0.00061041		-0.00051770		 0.00022366	
