# total energy = -49447.6256519 eV	

CRYSTAL	
PRIMVEC	
		13.67339962		0.00000000		0.00000000	
		0.00000000		5.10899740		0.00000000	
		0.00000000		0.00000000		8.73299523	
PRIMCOORD
   70 1	
Mg		2.36686547		1.67524031		0.04628446		-0.00005951		 0.00064227		-0.00051417	
Mg		11.30653414		3.43375846		0.04628446		 0.00005951		-0.00064227		-0.00051417	
Mg		9.20356528		0.87925839		4.41278481		-0.00005951		-0.00064227		-0.00051417	
Mg		4.46983433		4.22974038		4.41278481		 0.00005951		 0.00064227		-0.00051417	
Mg		2.42702843		4.27010152		1.53002197		-0.00050489		-0.00045185		 0.00005332	
Mg		11.24637118		0.83889862		1.53002197		 0.00050489		 0.00045185		 0.00005332	
Mg		9.26372824		3.39339732		5.89652095		-0.00050489		 0.00045185		 0.00005332	
Mg		4.40967138		1.71560145		5.89652095		 0.00050489		-0.00045185		 0.00005332	
Mg		4.43018148		1.76822490		2.83123874		 0.00000367		-0.00075855		 0.00038473	
Mg		9.24321814		3.34077524		2.83123874		-0.00000367		 0.00075855		 0.00038473	
Mg		11.26688128		0.78627517		7.19773909		 0.00000367		 0.00075855		 0.00038473	
Mg		2.40651833		4.32272496		7.19773909		-0.00000367		-0.00075855		 0.00038473	
Mg		0.00000000		2.55450007		7.23616408		0.00000000		0.00000000		 0.00019794	
Mg		6.83669981		0.00000000		2.86966372		0.00000000		0.00000000		 0.00019794	
Mg		0.00000000		2.55450007		1.63307154		0.00000000		0.00000000		-0.00042996	
Mg		6.83669981		0.00000000		5.99957053		0.00000000		0.00000000		-0.00042996	
Mg		0.00000000		0.00000000		5.78561327		0.00000000		0.00000000		-0.00090745	
Mg		6.83669981		2.55450007		1.41911292		0.00000000		0.00000000		-0.00090745	
Mg		0.00000000		0.00000000		3.01725030		0.00000000		0.00000000		 0.00033191	
Mg		6.83669981		2.55450007		7.38375065		0.00000000		0.00000000		 0.00033191	
Si		0.00000000		0.00000000		0.06724441		0.00000000		0.00000000		-0.00003002	
Si		6.83669981		2.55450007		4.43374340		0.00000000		0.00000000		-0.00003002	
Si		5.14940230		0.07203694		0.04453836		 0.00015651		-0.00008432		-0.00013224	
Si		8.52399732		5.03696320		0.04453836		-0.00015651		 0.00008432		-0.00013224	
Si		11.98610210		2.48246313		4.41103735		 0.00015651		 0.00008432		-0.00013224	
Si		1.68729751		2.62653701		4.41103735		-0.00015651		-0.00008432		-0.00013224	
O		5.67856286		3.62125905		8.67710932		-0.00012314		-0.00039279		 0.00034734	
O		7.99483676		1.48774108		8.67710932		 0.00012314		 0.00039279		 0.00034734	
O		12.51526267		4.04224115		4.31060896		-0.00012314		 0.00039279		 0.00034734	
O		1.15813695		1.06675899		4.31060896		 0.00012314		-0.00039279		 0.00034734	
O		1.07062719		3.54104816		0.04366463		-0.00035508		-0.00039169		-0.00048531	
O		12.60277243		1.56795198		0.04366463		 0.00035508		 0.00039169		-0.00048531	
O		7.90732700		4.12245205		4.41016499		-0.00035508		 0.00039169		-0.00048531	
O		5.76607262		0.98654809		4.41016499		 0.00035508		-0.00039169		-0.00048531	
O		3.41151320		0.11239808		3.01375811		 0.00058402		-0.00058166		-0.00004227	
O		10.26188504		4.99660205		3.01375811		-0.00058402		 0.00058166		-0.00004227	
O		10.24821438		2.44210199		7.38025846		 0.00058402		 0.00058166		-0.00004227	
O		3.42518660		2.66689815		7.38025846		-0.00058402		-0.00058166		-0.00004227	
O		3.48945158		2.61580749		1.41474564		-0.00006286		-0.00038279		 0.00057633	
O		10.18394803		2.49319128		1.41474564		 0.00006286		 0.00038279		 0.00057633	
O		10.32615139		5.04769135		5.78124599		-0.00006286		 0.00038279		 0.00057633	
O		3.34724823		0.06130742		5.78124599		 0.00006286		-0.00038279		 0.00057633	
O		1.03917837		0.73569590		1.33702193		-0.00006461		 0.00032295		 0.00019736	
O		12.63422125		4.37330424		1.33702193		 0.00006461		-0.00032295		 0.00019736	
O		7.87587818		1.81880417		5.70352228		-0.00006461		-0.00032295		 0.00019736	
O		5.79752144		3.29019597		5.70352228		 0.00006461		 0.00032295		 0.00019736	
O		5.87682716		3.30552248		3.16047232		-0.00007424		 0.00046825		 0.00012913	
O		7.79657246		1.80347629		3.16047232		 0.00007424		-0.00046825		 0.00012913	
O		12.71352696		4.35797635		7.52697131		-0.00007424		-0.00046825		 0.00012913	
O		0.95987265		0.75102241		7.52697131		 0.00007424		 0.00046825		 0.00012913	
O		5.66762414		0.78167681		1.39640687		 0.00028334		 0.00025619		-0.00022039	
O		8.00577548		4.32732333		1.39640687		-0.00028334		-0.00025619		-0.00022039	
O		12.50432395		1.77282326		5.76290723		 0.00028334		-0.00025619		-0.00022039	
O		1.16907567		3.33617687		5.76290723		-0.00028334		 0.00025619		-0.00022039	
O		1.21556523		3.49966424		3.03821025		-0.00000395		-0.00025969		-0.00046944	
O		12.45783439		1.60933452		3.03821025		 0.00000395		 0.00025969		-0.00046944	
O		8.05226503		4.16383459		7.40471060		-0.00000395		 0.00025969		-0.00046944	
O		5.62113458		0.94516554		7.40471060		 0.00000395		-0.00025969		-0.00046944	
O		3.55234922		0.02452324		0.06113104		 0.00001885		-0.00015368		-0.00030814	
O		10.12105040		5.08447689		0.06113104		-0.00001885		 0.00015368		-0.00030814	
O		10.38904903		2.52997682		4.42763139		 0.00001885		 0.00015368		-0.00030814	
O		3.28435059		2.57902331		4.42763139		-0.00001885		-0.00015368		-0.00030814	
H		4.10201988		3.06539981		0.87329952		-0.00021407		-0.00044855		 0.00050721	
H		9.57137973		2.04360033		0.87329952		 0.00021407		 0.00044855		 0.00050721	
H		10.93871969		4.59810039		5.23979988		-0.00021407		 0.00044855		 0.00050721	
H		2.73467992		0.51089974		5.23979988		 0.00021407		-0.00044855		 0.00050721	
H		3.69181790		0.91961953		3.92984991		-0.00000755		-0.00044655		 0.00039531	
H		9.98158172		4.18937924		3.92984991		 0.00000755		 0.00044655		 0.00039531	
H		10.52851770		1.63488054		8.29635026		-0.00000755		 0.00044655		 0.00039531	
H		3.14488191		3.47411960		8.29635026		 0.00000755		-0.00044655		 0.00039531	
