# total energy = -49445.5571872 eV	

CRYSTAL	
PRIMVEC	
		15.07579963		0.00000000		0.00000000	
		0.00000000		5.10899251		0.00000000	
		0.00000000		0.00000000		8.73300368	
PRIMCOORD
   70 1	
Mg		2.60962092		1.67524095		0.04628572		-0.00026307		-0.00042828		 0.00012816	
Mg		12.46617872		3.43375910		0.04628572		 0.00026307		 0.00042828		 0.00012816	
Mg		10.14752073		0.87925832		4.41278454		-0.00026307		 0.00042828		 0.00012816	
Mg		4.92827890		4.22974022		4.41278454		 0.00026307		-0.00042828		 0.00012816	
Mg		2.67595443		4.27010115		1.53002180		-0.00014903		-0.00013189		-0.00001403	
Mg		12.39984520		0.83889739		1.53002180		 0.00014903		 0.00013189		-0.00001403	
Mg		10.21385425		3.39339817		5.89652062		-0.00014903		 0.00013189		-0.00001403	
Mg		4.86194538		1.71560188		5.89652062		 0.00014903		-0.00013189		-0.00001403	
Mg		4.88455908		1.76822546		2.83123819		 0.00008838		 0.00018599		-0.00042115	
Mg		10.19124055		3.34077458		2.83123819		-0.00008838		-0.00018599		-0.00042115	
Mg		12.42245890		0.78627531		7.19773852		 0.00008838		-0.00018599		-0.00042115	
Mg		2.65334074		4.32272473		7.19773852		-0.00008838		 0.00018599		-0.00042115	
Mg		0.00000000		2.55449927		7.23616372		0.00000000		0.00000000		 0.00016957	
Mg		7.53789982		0.00000000		2.86966338		0.00000000		0.00000000		 0.00016957	
Mg		0.00000000		2.55449927		1.63307092		0.00000000		0.00000000		 0.00025393	
Mg		7.53789982		0.00000000		5.99957125		0.00000000		0.00000000		 0.00025393	
Mg		0.00000000		0.00000000		5.78561249		0.00000000		0.00000000		 0.00013912	
Mg		7.53789982		2.55449927		1.41911366		0.00000000		0.00000000		 0.00013912	
Mg		0.00000000		0.00000000		3.01725094		0.00000000		0.00000000		-0.00091570	
Mg		7.53789982		2.55449927		7.38375127		0.00000000		0.00000000		-0.00091570	
Si		0.00000000		0.00000000		0.06724410		0.00000000		0.00000000		-0.00007071	
Si		7.53789982		2.55449927		4.43374443		0.00000000		0.00000000		-0.00007071	
Si		5.67754614		0.07203669		0.04453843		-0.00015022		-0.00027052		 0.00011421	
Si		9.39825349		5.03696335		0.04453843		 0.00015022		 0.00027052		 0.00011421	
Si		13.21544596		2.48246258		4.41103726		-0.00015022		 0.00027052		 0.00011421	
Si		1.86035367		2.62653747		4.41103726		 0.00015022		-0.00027052		 0.00011421	
O		6.26097959		3.62125833		8.67710865		 0.00036424		-0.00000218		-0.00054158	
O		8.81482004		1.48774021		8.67710865		-0.00036424		 0.00000218		-0.00054158	
O		13.79887940		4.04224099		4.31060831		 0.00036424		 0.00000218		-0.00054158	
O		1.27692023		1.06675906		4.31060831		-0.00036424		-0.00000218		-0.00054158	
O		1.18043511		3.54104754		0.04366555		-0.00006220		 0.00026255		-0.00045028	
O		13.89536452		1.56795251		0.04366555		 0.00006220		-0.00026255		-0.00045028	
O		8.71833493		4.12245178		4.41016437		-0.00006220		-0.00026255		-0.00045028	
O		6.35746470		0.98654827		4.41016437		 0.00006220		 0.00026255		-0.00045028	
O		3.76141201		0.11239762		3.01375788		 0.00016079		-0.00082470		 0.00014649	
O		11.31438612		4.99660242		3.01375788		-0.00016079		 0.00082470		 0.00014649	
O		11.29931333		2.44210165		7.38025821		 0.00016079		 0.00082470		 0.00014649	
O		3.77648781		2.66689840		7.38025821		-0.00016079		-0.00082470		 0.00014649	
O		3.84734407		2.61580802		1.41474620		 0.00000872		-0.00052143		 0.00043346	
O		11.22845557		2.49319202		1.41474620		-0.00000872		 0.00052143		 0.00043346	
O		11.38524539		5.04769129		5.78124654		 0.00000872		 0.00052143		 0.00043346	
O		3.69055575		0.06130725		5.78124654		-0.00000872		-0.00052143		 0.00043346	
O		1.14576077		0.73569601		1.33702141		-0.00062336		-0.00012237		 0.00073474	
O		13.93004037		4.37330404		1.33702141		 0.00062336		 0.00012237		 0.00073474	
O		8.68366059		1.81880326		5.70352174		-0.00062336		 0.00012237		 0.00073474	
O		6.39213904		3.29019528		5.70352174		 0.00062336		-0.00012237		 0.00073474	
O		6.47957868		3.30552284		3.16047254		 0.00030141		 0.00002336		-0.00024971	
O		8.59622095		1.80347721		3.16047254		-0.00030141		-0.00002336		-0.00024971	
O		14.01748000		4.35797648		7.52697137		 0.00030141		-0.00002336		-0.00024971	
O		1.05832113		0.75102357		7.52697137		-0.00030141		 0.00002336		-0.00024971	
O		6.24891895		0.78167720		1.39640649		 0.00049499		-0.00023061		-0.00021814	
O		8.82688068		4.32732285		1.39640649		-0.00049499		 0.00023061		-0.00021814	
O		13.78681876		1.77282358		5.76290683		 0.00049499		 0.00023061		-0.00021814	
O		1.28898087		3.33617647		5.76290683		-0.00049499		-0.00023061		-0.00021814	
O		1.34023859		3.49966447		3.03821082		-0.00027232		-0.00002384		 0.00045582	
O		13.73556104		1.60933558		3.03821082		 0.00027232		 0.00002384		 0.00045582	
O		8.87813840		4.16383485		7.40471116		-0.00027232		 0.00002384		 0.00045582	
O		6.19766123		0.94516520		7.40471116		 0.00027232		-0.00002384		 0.00045582	
O		3.91669274		0.02452230		0.06113086		-0.00076754		-0.00018862		 0.00024286	
O		11.15910839		5.08447624		0.06113086		 0.00076754		 0.00018862		 0.00024286	
O		11.45459105		2.52997697		4.42763119		-0.00076754		 0.00018862		 0.00024286	
O		3.62120707		2.57902307		4.42763119		 0.00076754		-0.00018862		 0.00024286	
H		4.52273989		3.06540003		0.87330037		-0.00022221		 0.00015586		 0.00021608	
H		10.55305974		2.04360002		0.87330037		 0.00022221		-0.00015586		 0.00021608	
H		12.06063971		4.59809929		5.23979919		-0.00022221		-0.00015586		 0.00021608	
H		3.01515993		0.51089925		5.23979919		 0.00022221		 0.00015586		 0.00021608	
H		4.07046590		0.91961925		3.92984939		 0.00009091		-0.00027439		-0.00036502	
H		11.00533373		4.18937929		3.92984939		-0.00009091		 0.00027439		-0.00036502	
H		11.60836572		1.63488002		8.29634973		 0.00009091		 0.00027439		-0.00036502	
H		3.46743392		3.47412003		8.29634973		-0.00009091		-0.00027439		-0.00036502	
