# total energy = -2068.43885074 eV	

CRYSTAL	
PRIMVEC	
		2.93802190		-0.47008184		0.00000000	
		-1.87611420		2.77944255		0.00000000	
		0.00000000		0.00000000		2.67968071	
PRIMCOORD
   2 1	
Mg		0.00000000		0.00000000		0.00000000		 0.00004070		 0.00012768		0.00000000	
O		-0.27140286		1.69626706		1.33984006		-0.00004070		-0.00012768		0.00000000	
