# total energy = -2068.74758593 eV	

CRYSTAL	
PRIMVEC	
		2.93802144		-0.35256186		0.00000000	
		-1.77433796		2.72068153		0.00000000	
		0.00000000		0.00000000		2.67968025	
PRIMCOORD
   2 1	
Mg		0.00000000		0.00000000		0.00000000		 0.00001825		 0.00004186		0.00000000	
O		-0.20355199		1.69626687		1.33983983		-0.00001825		-0.00004186		0.00000000	
