# total energy = -41273.9998283 eV

CRYSTAL
PRIMVEC
		8.24369984		0.00000000		0.00000000
		0.00000000		8.24369984		0.00000000
		0.00000000		0.00000000		8.24369984
PRIMECORD
   56 1
Si		1.03046126		1.03046207		1.03046207		 0.00000077		 0.00000033		 0.00000067
Si		7.21324020		7.21323695		7.21323695		-0.00000055		-0.00000011		-0.00000124
Si		5.15231199		1.03045964		5.15231443		 0.00000172		 0.00000033		-0.00000092
Si		3.09139028		7.21323858		3.09138379		-0.00000168		-0.00000027		 0.00000124
Si		1.03046126		5.15231199		5.15231281		 0.00000071		 0.00000040		-0.00000084
Si		7.21324020		3.09138785		3.09138541		-0.00000061		-0.00000061		 0.00000135
Si		5.15231281		5.15231281		1.03045964		 0.00000149		 0.00000056		 0.00000092
Si		3.09138947		3.09138541		7.21323939		-0.00000183		-0.00000063		-0.00000125
Mg		4.12184911		4.12184830		4.12185073		 0.00000106		 0.00000042		-0.00000035
Mg		2.06092415		6.18277813		0.00000000		 0.00000056		-0.00000046		 0.00000023
Mg		6.18277813		2.06092415		0.00000000		-0.00000031		 0.00000041		 0.00000033
Mg		6.18277894		0.00000000		2.06092658		-0.00000056		 0.00000010		-0.00000056
Mg		2.06092415		0.00000000		6.18277488		 0.00000050		-0.00000026		 0.00000087
Mg		0.00000000		2.06092171		6.18277407		-0.00000090		 0.00000050		 0.00000106
Mg		0.00000000		6.18277813		2.06092496		-0.00000062		-0.00000064		-0.00000066
Mg		4.12185073		0.00000000		0.00000000		 0.00000049		-0.00000011		 0.00000022
Mg		2.06092496		2.06092334		4.12185154		 0.00000025		 0.00000006		-0.00000037
Mg		6.18277732		6.18277569		4.12184830		-0.00000033		-0.00000030		-0.00000003
Mg		6.18277732		4.12184748		6.18277244		-0.00000026		 0.00000026		 0.00000064
Mg		2.06092415		4.12185073		2.06092658		 0.00000030		 0.00000013		-0.00000122
Mg		0.00000000		4.12185154		0.00000000		-0.00000046		-0.00000009		 0.00000026
Mg		4.12184992		2.06092334		2.06092740		 0.00000083		 0.00000035		-0.00000113
Mg		4.12184830		6.18277488		6.18277163		 0.00000078		-0.00000025		 0.00000082
Mg		0.00000000		0.00000000		4.12185154		-0.00000088		-0.00000031		-0.00000012
O		2.00714295		2.00714214		2.00714214		 0.00004156		 0.00004173		 0.00004220
O		6.23655851		6.23655689		6.23655607		-0.00004182		-0.00004194		-0.00004217
O		4.17563355		0.05377957		6.12899450		-0.00004276		-0.00004231		 0.00004215
O		4.06806791		8.18991864		2.11470453		 0.00004258		 0.00004257		-0.00004248
O		0.05378201		6.12899287		4.17563111		-0.00004155		 0.00004187		-0.00004169
O		8.18992108		2.11470534		4.06806710		 0.00004148		-0.00004124		 0.00004112
O		6.12899531		4.17563355		0.05377957		 0.00004207		-0.00004227		-0.00004223
O		2.11470778		4.06806467		8.18991864		-0.00004213		 0.00004226		 0.00004226
O		8.18992027		4.06806710		2.11470534		 0.00004263		 0.00004248		-0.00004212
O		0.05378201		4.17563193		6.12899206		-0.00004209		-0.00004250		 0.00004209
O		4.06806791		2.11470453		8.18991864		 0.00004259		-0.00004264		 0.00004273
O		4.17563355		6.12899450		0.05377957		-0.00004259		 0.00004226		-0.00004242
O		2.11470697		8.18991864		4.06806548		-0.00004126		 0.00004147		 0.00004121
O		6.12899450		0.05378038		4.17563355		 0.00004163		-0.00004156		-0.00004159
O		2.00714214		6.12899206		6.12899206		 0.00004190		 0.00004219		 0.00004194
O		6.23656013		2.11470697		2.11470697		-0.00004220		-0.00004247		-0.00004224
O		4.17563355		4.17563193		2.00714052		-0.00004228		-0.00004190		 0.00004216
O		4.06806873		4.06806548		6.23655770		 0.00004189		 0.00004203		-0.00004218
O		0.05378282		2.00714295		0.05378201		-0.00004217		 0.00004201		-0.00004231
O		8.18992027		6.23655526		8.18991621		 0.00004226		-0.00004187		 0.00004229
O		8.18992027		8.18991783		6.23655445		 0.00004163		 0.00004135		-0.00004151
O		0.05378201		0.05378119		2.00714377		-0.00004150		-0.00004164		 0.00004173
O		4.06806873		6.23655770		4.06806548		 0.00004185		-0.00004198		 0.00004184
O		4.17563274		2.00714133		4.17563274		-0.00004196		 0.00004156		-0.00004146
O		6.12899450		2.00713971		6.12899287		 0.00004191		 0.00004200		 0.00004181
O		2.11470778		6.23655851		2.11470453		-0.00004198		-0.00004190		-0.00004189
O		2.00714295		4.17563193		4.17563193		 0.00004139		-0.00004172		-0.00004148
O		6.23655932		4.06806710		4.06806629		-0.00004183		 0.00004177		 0.00004182
O		6.23655932		8.18991621		8.18991540		-0.00004212		 0.00004247		 0.00004251
O		2.00714295		0.05378201		0.05378282		 0.00004196		-0.00004218		-0.00004231
O		6.12899531		6.12899450		2.00714052		 0.00004149		 0.00004147		 0.00004157
O		2.11470697		2.11470453		6.23655770		-0.00004102		-0.00004111		-0.00004129
