# total energy = -41274.4085326 eV

CRYSTAL
PRIMVEC
		8.04406153		0.00000000		0.00000000
		0.00000000		8.04406153		0.00000000
		0.00000000		0.00000000		8.04406153
PRIMECORD
   56 1
Si		1.00550688		1.00550769		1.00550769		 0.00000085		-0.00000054		-0.00000024
Si		7.03855546		7.03855465		7.03855465		 0.00000029		-0.00000007		-0.00000035
Si		5.02753927		1.00550769		5.02753927		 0.00000002		-0.00000044		 0.00000033
Si		3.01652470		7.03855465		3.01652226		-0.00000100		 0.00000011		 0.00000021
Si		1.00550688		5.02753927		5.02753927		 0.00000077		 0.00000046		 0.00000052
Si		7.03855546		3.01652388		3.01652307		 0.00000021		-0.00000007		 0.00000026
Si		5.02753927		5.02753927		1.00550769		-0.00000007		 0.00000060		-0.00000014
Si		3.01652470		3.01652307		7.03855546		-0.00000107		-0.00000002		-0.00000055
Mg		4.02202995		4.02203076		4.02203239		 0.00000055		 0.00000029		-0.00000018
Mg		2.01101538		6.03304777		0.00000000		 0.00000050		-0.00000020		-0.00000016
Mg		6.03304777		2.01101538		0.00000000		-0.00000007		 0.00000023		 0.00000013
Mg		6.03304858		0.00000000		2.01101619		-0.00000035		 0.00000001		-0.00000050
Mg		2.01101538		0.00000000		6.03304614		 0.00000042		-0.00000022		 0.00000071
Mg		0.00000000		2.01101457		6.03304614		-0.00000041		 0.00000020		 0.00000074
Mg		0.00000000		6.03304858		2.01101619		-0.00000046		-0.00000049		-0.00000068
Mg		4.02203157		0.00000000		0.00000000		 0.00000019		-0.00000031		-0.00000014
Mg		2.01101538		2.01101538		4.02203157		 0.00000008		-0.00000002		-0.00000001
Mg		6.03304777		6.03304777		4.02203076		-0.00000030		-0.00000017		 0.00000002
Mg		6.03304777		4.02203076		6.03304533		-0.00000013		 0.00000020		 0.00000060
Mg		2.01101538		4.02203157		2.01101701		 0.00000019		 0.00000008		-0.00000085
Mg		0.00000000		4.02203157		0.00000000		-0.00000028		-0.00000006		 0.00000009
Mg		4.02203076		2.01101457		2.01101701		 0.00000051		 0.00000027		-0.00000077
Mg		4.02203076		6.03304696		6.03304533		 0.00000029		0.00000000		 0.00000080
Mg		0.00000000		0.00000000		4.02203157		-0.00000046		 0.00000001		 0.00000015
O		1.96755146		1.96755146		1.96755146		 0.00000203		 0.00000222		 0.00000238
O		6.07651169		6.07651088		6.07651088		-0.00000203		-0.00000216		-0.00000235
O		4.06549469		0.04346311		5.98958385		-0.00000143		-0.00000144		 0.00000133
O		3.97856765		8.00059923		2.05447930		 0.00000249		 0.00000234		-0.00000221
O		0.04346392		5.98958303		4.06549550		-0.00000202		 0.00000203		-0.00000216
O		8.00060004		2.05447930		3.97856684		 0.00000129		-0.00000128		 0.00000121
O		5.98958385		4.06549550		0.04346311		 0.00000184		-0.00000192		-0.00000186
O		2.05448012		3.97856684		8.00059841		-0.00000204		 0.00000193		 0.00000225
O		8.00059923		3.97856765		2.05447930		 0.00000190		 0.00000191		-0.00000167
O		0.04346392		4.06549550		5.98958303		-0.00000227		-0.00000226		 0.00000203
O		3.97856765		2.05447930		8.00059923		 0.00000214		-0.00000209		 0.00000232
O		4.06549469		5.98958385		0.04346311		-0.00000135		 0.00000136		-0.00000145
O		2.05448012		8.00059923		3.97856684		-0.00000151		 0.00000161		 0.00000144
O		5.98958303		0.04346392		4.06549631		 0.00000205		-0.00000202		-0.00000223
O		1.96755146		5.98958303		5.98958303		 0.00000163		 0.00000171		 0.00000151
O		6.07651169		2.05448012		2.05448012		-0.00000220		-0.00000226		-0.00000209
O		4.06549550		4.06549469		1.96755146		-0.00000189		-0.00000185		 0.00000202
O		3.97856765		3.97856684		6.07651088		 0.00000190		 0.00000168		-0.00000193
O		0.04346392		1.96755146		0.04346392		-0.00000202		 0.00000202		-0.00000187
O		8.00060004		6.07651088		8.00059841		 0.00000167		-0.00000176		 0.00000211
O		8.00060004		8.00059923		6.07651007		 0.00000118		 0.00000122		-0.00000158
O		0.04346392		0.04346392		1.96755146		-0.00000188		-0.00000174		 0.00000187
O		3.97856765		6.07651088		3.97856684		 0.00000199		-0.00000202		 0.00000187
O		4.06549469		1.96755146		4.06549550		-0.00000171		 0.00000181		-0.00000186
O		5.98958303		1.96755065		5.98958303		 0.00000187		 0.00000205		 0.00000182
O		2.05448012		6.07651169		2.05447930		-0.00000199		-0.00000202		-0.00000177
O		1.96755146		4.06549550		4.06549550		 0.00000178		-0.00000191		-0.00000209
O		6.07651169		3.97856765		3.97856684		-0.00000192		 0.00000189		 0.00000194
O		6.07651169		8.00059841		8.00059760		-0.00000190		 0.00000208		 0.00000224
O		1.96755146		0.04346392		0.04346392		 0.00000162		-0.00000156		-0.00000161
O		5.98958385		5.98958385		1.96755065		 0.00000180		 0.00000174		 0.00000186
O		2.05447930		2.05447849		6.07651088		-0.00000123		-0.00000120		-0.00000145
