# total energy = -41274.3639299 eV

CRYSTAL
PRIMVEC
		8.19771628		0.00000000		0.00000000
		0.00000000		8.19771628		0.00000000
		0.00000000		0.00000000		8.19771628
PRIMECORD
   56 1
Si		1.02471393		1.02471474		1.02471474		 0.00000043		-0.00000012		-0.00000048
Si		7.17300235		7.17300073		7.17300073		 0.00000014		-0.00000023		-0.00000033
Si		5.12357288		1.02471311		5.12357288		 0.00000001		-0.00000001		 0.00000029
Si		3.07414421		7.17300154		3.07414178		-0.00000038		 0.00000002		 0.00000040
Si		1.02471393		5.12357207		5.12357207		 0.00000044		 0.00000004		 0.00000069
Si		7.17300235		3.07414340		3.07414259		-0.00000003		-0.00000009		 0.00000045
Si		5.12357288		5.12357288		1.02471311		-0.00000005		 0.00000022		-0.00000043
Si		3.07414421		3.07414259		7.17300235		-0.00000054		 0.00000014		-0.00000058
Mg		4.09885652		4.09885652		4.09885895		 0.00000071		 0.00000042		-0.00000032
Mg		2.04942785		6.14828924		0.00000000		 0.00000072		-0.00000040		-0.00000006
Mg		6.14828924		2.04942785		0.00000000		-0.00000040		 0.00000045		 0.00000020
Mg		6.14828924		0.00000000		2.04943029		-0.00000077		 0.00000006		-0.00000076
Mg		2.04942785		0.00000000		6.14828599		 0.00000058		-0.00000043		 0.00000097
Mg		0.00000000		2.04942785		6.14828518		-0.00000067		 0.00000040		 0.00000102
Mg		0.00000000		6.14828924		2.04943029		-0.00000045		-0.00000063		-0.00000094
Mg		4.09885814		0.00000000		0.00000000		 0.00000032		-0.00000035		 0.00000011
Mg		2.04942785		2.04942785		4.09885895		 0.00000033		 0.00000009		-0.00000020
Mg		6.14828843		6.14828762		4.09885733		-0.00000055		-0.00000035		 0.00000007
Mg		6.14828843		4.09885652		6.14828437		-0.00000026		 0.00000029		 0.00000093
Mg		2.04942785		4.09885814		2.04943110		 0.00000052		 0.00000019		-0.00000121
Mg		0.00000000		4.09885814		0.00000000		-0.00000043		 0.00000009		 0.00000006
Mg		4.09885733		2.04942704		2.04943110		 0.00000067		 0.00000033		-0.00000111
Mg		4.09885652		6.14828680		6.14828356		 0.00000043		-0.00000017		 0.00000107
Mg		0.00000000		0.00000000		4.09885895		-0.00000058		-0.00000011		 0.00000009
O		1.99807210		1.99807210		1.99807210		 0.00012651		 0.00012659		 0.00012688
O		6.19964499		6.19964337		6.19964337		-0.00012655		-0.00012646		-0.00012675
O		4.15021470		0.05135575		6.09693024		-0.00012655		-0.00012654		 0.00012638
O		4.04750077		8.14635972		2.10078441		 0.00012686		 0.00012680		-0.00012672
O		0.05135737		6.09692943		4.15021470		-0.00012681		 0.00012695		-0.00012707
O		8.14636053		2.10078523		4.04749995		 0.00012645		-0.00012641		 0.00012623
O		6.09693105		4.15021551		0.05135494		 0.00012629		-0.00012636		-0.00012623
O		2.10078604		4.04749995		8.14635891		-0.00012660		 0.00012655		 0.00012685
O		8.14636053		4.04750077		2.10078523		 0.00012663		 0.00012670		-0.00012642
O		0.05135656		4.15021470		6.09692943		-0.00012672		-0.00012684		 0.00012655
O		4.04750077		2.10078441		8.14635972		 0.00012673		-0.00012674		 0.00012695
O		4.15021470		6.09693105		0.05135494		-0.00012619		 0.00012623		-0.00012626
O		2.10078604		8.14635891		4.04749914		-0.00012653		 0.00012651		 0.00012633
O		6.09693024		0.05135656		4.15021551		 0.00012691		-0.00012685		-0.00012688
O		1.99807129		6.09692943		6.09692943		 0.00012655		 0.00012673		 0.00012643
O		6.19964499		2.10078604		2.10078604		-0.00012671		-0.00012680		-0.00012671
O		4.15021551		4.15021470		1.99807129		-0.00012639		-0.00012636		 0.00012651
O		4.04750077		4.04749995		6.19964418		 0.00012644		 0.00012638		-0.00012653
O		0.05135737		1.99807210		0.05135656		-0.00012665		 0.00012658		-0.00012658
O		8.14635972		6.19964337		8.14635809		 0.00012641		-0.00012642		 0.00012683
O		8.14636053		8.14635891		6.19964255		 0.00012625		 0.00012634		-0.00012651
O		0.05135737		0.05135656		1.99807210		-0.00012655		-0.00012655		 0.00012673
O		4.04750077		6.19964418		4.04749914		 0.00012666		-0.00012673		 0.00012655
O		4.15021470		1.99807048		4.15021551		-0.00012668		 0.00012661		-0.00012661
O		6.09693024		1.99807048		6.09692943		 0.00012673		 0.00012659		 0.00012659
O		2.10078604		6.19964418		2.10078523		-0.00012682		-0.00012663		-0.00012649
O		1.99807129		4.15021470		4.15021551		 0.00012661		-0.00012676		-0.00012688
O		6.19964499		4.04750077		4.04749995		-0.00012653		 0.00012655		 0.00012638
O		6.19964418		8.14635809		8.14635809		-0.00012661		 0.00012673		 0.00012684
O		1.99807210		0.05135737		0.05135656		 0.00012641		-0.00012635		-0.00012644
O		6.09693105		6.09693105		1.99807048		 0.00012650		 0.00012634		 0.00012653
O		2.10078604		2.10078441		6.19964418		-0.00012629		-0.00012630		-0.00012645
