# total energy = -35731.1009683 eV	

CRYSTAL	
PRIMVEC	
		7.86030040		0.31441170		0.00000000	
		-3.65786013		6.65001044		0.00000000	
		0.00000000		0.00000000		9.57299772	
PRIMCOORD
   46 1	
Mg		1.26237384		3.14078473		3.69230634		-0.00014185		-0.00002596		 0.00032760	
Mg		0.93013409		6.27283597		3.69230634		-0.00028260		 0.00056391		-0.00005717	
Mg		-1.64793094		4.20081739		3.69230634		-0.00030883		-0.00018422		-0.00023676	
Mg		2.94006486		3.82363977		8.47880598		 0.00014185		 0.00002596		 0.00032760	
Mg		3.27230539		0.69158932		8.47880598		 0.00028260		-0.00056391		-0.00005717	
Mg		5.85036884		2.76360790		8.47880598		 0.00030883		 0.00018422		-0.00023676	
Mg		0.87835308		1.69207901		1.07887707		 0.00026460		 0.00023070		-0.00011253	
Mg		2.35413401		6.76408222		1.07887707		-0.00020670		-0.00005161		 0.00027256	
Mg		-2.68790931		5.15827921		1.07887707		 0.00006375		-0.00013328		-0.00010862	
Mg		3.32408640		5.27234707		5.86537672		-0.00026460		-0.00023070		-0.00011253	
Mg		1.84830468		0.20034385		5.86537672		 0.00020670		 0.00005161		 0.00027256	
Mg		6.89034801		1.80614686		5.86537672		-0.00006375		 0.00013328		-0.00010862	
Mg		0.18152619		4.53814603		0.98506174		 0.00048088		 0.00029026		-0.00016503	
Mg		4.02091329		2.42627926		5.77156217		-0.00048088		-0.00029026		-0.00016503	
Si		4.02091329		2.42627926		1.66665892		 0.00009767		 0.00013681		 0.00013634	
Si		0.18152619		4.53814603		6.45315935		-0.00009767		-0.00013681		 0.00013634	
Si		0.00000000		0.00000000		3.84643085		-0.00004313		-0.00005840		-0.00018712	
Si		0.00000000		0.00000000		8.63293207		 0.00004313		 0.00005840		-0.00018712	
O		1.47262093		0.24512439		9.34324779		-0.00007937		-0.00078667		 0.00043709	
O		7.01321542		1.45425402		9.34324779		 0.00033807		 0.00006421		 0.00021927	
O		3.57690274		5.57945936		9.34324779		-0.00037257		 0.00022046		 0.00002984	
O		2.72981776		6.71930090		4.55674814		 0.00007937		 0.00078667		 0.00043709	
O		-2.81077595		5.51017126		4.55674814		-0.00033807		-0.00006421		 0.00021927	
O		0.62553596		1.38496671		4.55674814		 0.00037257		-0.00022046		 0.00002984	
O		3.38482195		0.80687020		4.63716117		 0.00018022		 0.00025768		-0.00005690	
O		5.70176196		2.79572323		4.63716117		 0.00034839		-0.00064986		-0.00019025	
O		2.97615439		3.67624434		4.63716117		-0.00011201		-0.00046643		 0.00041176	
O		0.81761674		6.15755509		9.42366082		-0.00018022		-0.00025768		-0.00005690	
O		-1.49932405		4.16870205		9.42366082		-0.00034839		 0.00064986		-0.00019025	
O		1.22628509		3.28818094		9.42366082		 0.00011201		 0.00046643		 0.00041176	
O		2.48903180		2.10243867		2.22093620		 0.00010874		 0.00035844		-0.00005836	
O		4.96190406		1.27977236		2.22093620		-0.00009251		 0.00004694		 0.00026670	
O		4.61180166		3.89662674		2.22093620		 0.00012631		 0.00017522		-0.00039765	
O		1.71340689		4.86198583		7.00743584		-0.00010874		-0.00035844		-0.00005836	
O		-0.75946537		5.68465371		7.00743584		 0.00009251		-0.00004694		 0.00026670	
O		-0.40936375		3.06779933		7.00743584		-0.00012631		-0.00017522		-0.00039765	
O		-0.25799333		2.95763724		2.29560504		-0.00004897		-0.00085178		 0.00002629	
O		1.74393397		5.05622285		2.29560504		 0.00009055		-0.00009219		-0.00015414	
O		-0.94136364		5.60057879		2.29560504		-0.00003648		-0.00005804		-0.00021091	
O		4.46043124		4.00678884		7.08210469		 0.00004897		 0.00085178		 0.00002629	
O		2.45850473		1.90820165		7.08210469		-0.00009055		 0.00009219		-0.00015414	
O		5.14380312		1.36384571		7.08210469		 0.00003648		 0.00005804		-0.00021091	
O		4.02091329		2.42627926		0.00000000		-0.00004290		-0.00001037		 0.00005001	
O		0.18152619		4.53814603		4.78650043		 0.00004290		 0.00001037		 0.00005001	
O		0.00000000		0.00000000		2.22380829		-0.00024852		-0.00018480		-0.00024203	
O		0.00000000		0.00000000		7.01030793		 0.00024852		 0.00018480		-0.00024203	
