# total energy = -35732.2063438 eV	

CRYSTAL	
PRIMVEC	
		7.86029782		-0.62882225		0.00000000	
		-4.47472735		7.12163177		0.00000000	
		0.00000000		0.00000000		9.57300161	
PRIMCOORD
   46 1	
Mg		0.89094520		3.00415778		3.69230594		 0.00033844		 0.00064172		-0.00003547	
Mg		0.18065875		6.19119879		3.69230594		 0.00035645		-0.00040530		-0.00073162	
Mg		-2.16075926		4.41908236		3.69230594		-0.00020082		-0.00065710		-0.00043029	
Mg		2.49462685		3.48865017		8.47880595		-0.00033844		-0.00064172		-0.00003547	
Mg		3.20491330		0.30160837		8.47880595		-0.00035645		 0.00040530		-0.00073162	
Mg		5.54633209		2.07372480		8.47880595		 0.00020082		 0.00065710		-0.00043029	
Mg		0.67920136		1.59464339		1.07887667		 0.00027841		 0.00016405		-0.00060880	
Mg		1.55246116		6.51365304		1.07887667		 0.00043482		-0.00032467		 0.00007727	
Mg		-3.32081704		5.50614409		1.07887667		-0.00009186		 0.00018001		 0.00058167	
Mg		2.70637069		4.89816535		5.86537669		-0.00027841		-0.00016405		-0.00060880	
Mg		1.83311089		-0.02084509		5.86537669		-0.00043482		 0.00032467		 0.00007727	
Mg		6.70638988		0.98666386		5.86537669		 0.00009186		-0.00018001		 0.00058167	
Mg		-0.36305229		4.53814579		0.98506233		-0.00020778		-0.00093168		 0.00045925	
Mg		3.74862434		1.95466137		5.77156235		 0.00020778		 0.00093168		 0.00045925	
Si		3.74862434		1.95466137		1.66665929		 0.00056406		-0.00043039		 0.00050670	
Si		-0.36305229		4.53814579		6.45315930		-0.00056406		 0.00043039		 0.00050670	
Si		0.00000000		0.00000000		3.84643106		-0.00039912		-0.00032021		 0.00031163	
Si		0.00000000		0.00000000		8.63293187		 0.00039912		 0.00032021		 0.00031163	
O		1.45023861		0.06930489		9.34324828		 0.00072655		-0.00022638		-0.00034648	
O		6.87214204		0.61831178		9.34324828		-0.00040629		 0.00056094		-0.00011062	
O		2.92349237		5.17636666		9.34324828		 0.00048965		 0.00029074		 0.00055507	
O		1.93533423		6.42350227		4.55674826		-0.00072655		 0.00022638		-0.00034648	
O		-3.48656999		5.87449617		4.55674826		 0.00040629		-0.00056094		-0.00011062	
O		0.46208125		1.31644129		4.55674826		-0.00048965		-0.00029074		 0.00055507	
O		3.30411573		0.40392002		4.63716134		-0.00020951		-0.00002538		-0.00016676	
O		5.39315006		2.12385631		4.63716134		 0.00017130		-0.00039440		-0.00041169	
O		2.54860565		3.33620779		4.63716134		-0.00085240		 0.00072042		 0.00037609	
O		0.08145710		6.08888793		9.42366136		 0.00020951		 0.00002538		-0.00016676	
O		-2.00757801		4.36895085		9.42366136		-0.00017130		 0.00039440		-0.00041169	
O		0.83696640		3.15660016		9.42366136		 0.00085240		-0.00072042		 0.00037609	
O		2.24830232		1.81338395		2.22093600		 0.00030102		-0.00023888		 0.00003168	
O		4.83193971		0.68954229		2.22093600		 0.00075809		-0.00053871		 0.00004178	
O		4.16563021		3.36105709		2.22093600		 0.00014005		 0.00001158		 0.00012029	
O		1.13727130		4.67942321		7.00743601		-0.00030102		 0.00023888		 0.00003168	
O		-1.44636766		5.80326565		7.00743601		-0.00075809		 0.00053871		 0.00004178	
O		-0.78005816		3.13175007		7.00743601		-0.00014005		-0.00001158		 0.00012029	
O		-0.61471761		3.00286536		2.29560534		 0.00006306		 0.00038000		 0.00000355	
O		1.14459922		4.87092519		2.29560534		 0.00035597		-0.00030285		 0.00008671	
O		-1.61903612		5.74064996		2.29560534		 0.00000900		 0.00041789		-0.00049721	
O		4.00029124		3.48994337		7.08210535		-0.00006306		-0.00038000		 0.00000355	
O		2.24097283		1.62188276		7.08210535		-0.00035597		 0.00030285		 0.00008671	
O		5.00460896		0.75215799		7.08210535		-0.00000900		-0.00041789		-0.00049721	
O		3.74862434		1.95466137		0.00000000		-0.00069525		 0.00057567		-0.00002785	
O		-0.36305229		4.53814579		4.78650002		 0.00069525		-0.00057567		-0.00002785	
O		0.00000000		0.00000000		2.22380786		-0.00034857		 0.00004425		 0.00021507	
O		0.00000000		0.00000000		7.01030788		 0.00034857		-0.00004425		 0.00021507	
