# total energy = -35731.8816131 eV	

CRYSTAL	
PRIMVEC	
		7.86029782		0.62882225		0.00000000	
		-3.38557047		6.49280953		0.00000000	
		0.00000000		0.00000000		9.57300161	
PRIMCOORD
   46 1	
Mg		1.38618382		3.18632817		3.69230594		 0.00056978		 0.00211744		-0.00006749	
Mg		1.17995899		6.30004903		3.69230594		-0.00069669		 0.00198747		-0.00025761	
Mg		-1.47698830		4.12806174		3.69230594		 0.00229185		-0.00123040		 0.00012072	
Mg		3.08854432		3.93530440		8.47880595		-0.00056978		-0.00211744		-0.00006749	
Mg		3.29476915		0.82158274		8.47880595		 0.00069669		-0.00198747		-0.00025761	
Mg		5.95171486		2.99356925		8.47880595		-0.00229185		 0.00123040		 0.00012072	
Mg		0.94473712		1.72455793		1.07887667		 0.00012670		 0.00069696		 0.00145946	
Mg		2.62135805		6.84755769		1.07887667		-0.00196700		-0.00005119		-0.00010159	
Mg		-2.47693987		5.04232331		1.07887667		 0.00178321		 0.00022321		-0.00170294	
Mg		3.52999102		5.39707384		5.86537669		-0.00012670		-0.00069696		 0.00145946	
Mg		1.85336930		0.27407408		5.86537669		 0.00196700		 0.00005119		-0.00010159	
Mg		6.95166801		2.07930767		5.86537669		-0.00178321		-0.00022321		-0.00170294	
Mg		0.36305229		4.53814579		0.98506233		 0.00169645		 0.00015302		 0.00071484	
Mg		4.11167585		2.58348520		5.77156235		-0.00169645		-0.00015302		 0.00071484	
Si		4.11167585		2.58348520		1.66665929		 0.00027978		 0.00033728		 0.00081859	
Si		0.36305229		4.53814579		6.45315930		-0.00027978		-0.00033728		 0.00081859	
Si		0.00000000		0.00000000		3.84643106		 0.00106948		 0.00050810		-0.00002358	
Si		0.00000000		0.00000000		8.63293187		-0.00106948		-0.00050810		-0.00002358	
O		1.48008096		0.30373112		9.34324828		-0.00061715		 0.00024797		-0.00150957	
O		7.06023910		1.73290227		9.34324828		 0.00307042		 0.00097829		 0.00072574	
O		3.79470670		5.71382299		9.34324828		-0.00035666		-0.00100358		 0.00309328	
O		2.99464640		6.81790065		4.55674826		 0.00061715		-0.00024797		-0.00150957	
O		-2.58551175		5.38873029		4.55674826		-0.00307042		-0.00097829		 0.00072574	
O		0.68002066		1.40780878		4.55674826		 0.00035666		 0.00100358		 0.00309328	
O		3.41172402		0.94118711		4.63716134		 0.00024001		 0.00106016		 0.00061453	
O		5.80463299		3.01967864		4.63716134		-0.00147273		-0.00308147		-0.00004251	
O		3.11866975		3.78958985		4.63716134		-0.00223980		-0.00073188		-0.00207012	
O		1.06300333		6.18044467		9.42366136		-0.00024001		-0.00106016		 0.00061453	
O		-1.32990563		4.10195313		9.42366136		 0.00147273		 0.00308147		-0.00004251	
O		1.35605682		3.33204192		9.42366136		 0.00223980		 0.00073188		-0.00207012	
O		2.56927569		2.19879139		2.22093600		 0.00043821		 0.00033520		-0.00215124	
O		5.00522481		1.47651517		2.22093600		-0.00228988		-0.00086609		 0.00007463	
O		4.76052705		4.07514983		2.22093600		-0.00077153		-0.00073199		 0.00316775	
O		1.90545167		4.92284117		7.00743601		-0.00043821		-0.00033520		-0.00215124	
O		-0.53049667		5.64511581		7.00743601		 0.00228988		 0.00086609		 0.00007463	
O		-0.28579890		3.04648195		7.00743601		 0.00077153		 0.00073199		 0.00316775	
O		-0.13908370		2.94256088		2.29560534		-0.00182579		 0.00201043		-0.00219860	
O		1.94371169		5.11799016		2.29560534		 0.00152894		 0.00251772		-0.00137191	
O		-0.71547269		5.55388868		2.29560534		 0.00085040		-0.00039700		 0.00023513	
O		4.61381184		4.17907089		7.08210535		 0.00182579		-0.00201043		-0.00219860	
O		2.53101487		2.00364162		7.08210535		-0.00152894		-0.00251772		-0.00137191	
O		5.19020083		1.56774309		7.08210535		-0.00085040		 0.00039700		 0.00023513	
O		4.11167585		2.58348520		0.00000000		 0.00117147		 0.00024642		 0.00102775	
O		0.36305229		4.53814579		4.78650002		-0.00117147		-0.00024642		 0.00102775	
O		0.00000000		0.00000000		2.22380786		 0.00145293		-0.00060209		-0.00055526	
O		0.00000000		0.00000000		7.01030788		-0.00145293		 0.00060209		-0.00055526	
