# total energy = -22469.319858 eV

CRYSTAL
PRIMVEC
		9.73970023		-0.38958762		0.00000000
		-0.35669959		8.91740210		0.00000000
		-1.43536642		0.05741271		5.05028100
PRIMECORD
   40 1
Mg		-0.68275113		8.11206558		1.26257074		 0.00009280		 0.00068880		-0.00027969
Mg		-1.10931585		0.86274923		3.78771221		-0.00009280		-0.00068880		 0.00027969
Mg		4.36544683		3.45857169		1.26257074		 0.00007720		 0.00064080		-0.00027430
Mg		3.58218642		5.12665452		3.78771221		-0.00007720		-0.00064080		 0.00027430
Ca		-0.46638028		2.70277191		1.26257074		 0.00000473		 0.00000504		-0.00007618
Ca		-1.32568768		6.27204388		3.78771221		-0.00000473		-0.00000504		 0.00007618
Ca		4.22512296		6.96667817		1.26257074		 0.00001669		 0.00007476		-0.00007820
Ca		3.72251029		1.61854902		3.78771221		-0.00001669		-0.00007476		 0.00007820
Si		2.42494802		0.73268459		1.15833305		-0.00077644		 0.00028420		 0.00014403
Si		5.52268523		7.85254162		3.89194991		 0.00077644		-0.00028420		-0.00014403
Si		6.53058626		0.56845891		1.36680940		 0.00050503		-0.00026161		 0.00009876
Si		1.41704699		8.01676828		3.68347355		-0.00050503		 0.00026161		-0.00009876
Si		7.11645028		4.99659086		1.15833305		-0.00002461		 0.00074603		 0.00047701
Si		0.83118296		3.58863633		3.89194991		 0.00002461		-0.00074603		-0.00047701
Si		1.48238830		5.22195377		1.36680940		-0.00023409		 0.00016670		-0.00019169
Si		6.46524592		3.36327342		3.68347355		 0.00023409		-0.00016670		 0.00019169
O		0.89070600		0.73805351		0.71643260		 0.00009428		-0.00023359		-0.00042960
O		7.05692725		7.84717271		4.33385035		-0.00009428		 0.00023359		 0.00042960
O		8.06931407		0.45091004		1.80870790		 0.00004996		 0.00032124		 0.00016486
O		-0.12168180		8.13431812		3.24157506		-0.00004996		-0.00032124		-0.00016486
O		5.58220925		5.00195978		0.71643260		-0.00038086		-0.00028508		-0.00058054
O		2.36542498		3.58326742		4.33385035		 0.00038086		 0.00028508		 0.00058054
O		3.02111611		5.10440393		1.80870790		 0.00051610		 0.00024272		 0.00031359
O		4.92651714		3.48082326		3.24157506		-0.00051610		-0.00024272		-0.00031359
O		2.97010165		2.10867126		1.60477777		 0.00022025		 0.00021624		-0.00007125
O		4.97753062		6.47655593		3.44550519		-0.00022025		-0.00021624		 0.00007125
O		5.87342911		1.99253676		0.92036371		-0.00030152		 0.00015266		-0.00049902
O		2.07420414		6.59268849		4.12991924		 0.00030152		-0.00015266		 0.00049902
O		7.66160392		6.37257655		1.60477777		-0.00005612		-0.00027009		-0.00021230
O		0.28602933		2.21264967		3.44550519		 0.00005612		 0.00027009		 0.00021230
O		0.82523115		6.64603162		0.92036371		-0.00005057		-0.00024464		-0.00037116
O		7.12240210		1.93919557		4.12991924		 0.00005057		 0.00024464		 0.00037116
O		1.98097331		0.07603236		5.02720285		-0.00031404		-0.00023695		 0.00035550
O		5.96665994		8.50919483		0.02308010		 0.00031404		 0.00023695		-0.00035550
O		5.59322878		-0.06845856		2.54822060		-0.00048757		 0.00012758		-0.00047958
O		2.35440349		8.65368575		2.50206235		 0.00048757		-0.00012758		 0.00047958
O		6.67247460		4.33993765		5.02720285		-0.00042103		-0.00025604		 0.00032025
O		1.27515767		4.24528856		0.02308010		 0.00042103		 0.00025604		-0.00032025
O		0.54503082		4.58503630		2.54822060		-0.00038262		 0.00011946		-0.00043206
O		7.40260146		4.00019187		2.50206235		 0.00038262		-0.00011946		 0.00043206
