# total energy = -22464.0878184 eV

CRYSTAL
PRIMVEC
		9.73970164		-1.16876184		0.00000000
		-1.07008733		8.91740419		0.00000000
		-1.43536648		0.17224633		5.05028324
PRIMECORD
   40 1
Mg		-1.33056784		8.14077423		1.26257081		-0.00034206		 0.00033075		 0.00085902
Mg		-1.17489087		0.94887139		3.78771243		 0.00034206		-0.00033075		-0.00085902
Mg		4.07432566		3.09769220		1.26257081		-0.00032306		 0.00035600		 0.00085050
Mg		3.15991531		4.82318863		3.78771243		 0.00032306		-0.00035600		-0.00085050
Ca		-0.68145255		2.73147917		1.26257081		 0.00012148		 0.00025642		-0.00058978
Ca		-1.82400616		6.35816645		3.78771243		-0.00012148		-0.00025642		 0.00058978
Ca		3.65335264		6.60579740		1.26257081		 0.00012199		 0.00023877		-0.00058770
Ca		3.58088833		1.31508441		3.78771243		-0.00012199		-0.00023877		 0.00058770
Si		2.35846713		0.53602953		1.15833328		-0.00014612		 0.00008897		-0.00020593
Si		4.87577384		7.38485131		3.89194996		 0.00014612		-0.00008897		 0.00020593
Si		6.46410495		0.04335342		1.36680932		 0.00014225		 0.00013380		 0.00031498
Si		0.77013602		7.87752741		3.68347392		-0.00014225		-0.00013380		-0.00031498
Si		6.69327331		4.41034776		1.15833328		 0.00014096		-0.00001829		-0.00010805
Si		0.54096767		3.51053307		3.89194996		-0.00014096		 0.00001829		 0.00010805
Si		1.05921145		5.08643643		1.36680932		-0.00002300		 0.00012545		 0.00027084
Si		6.17503148		2.83444538		3.68347392		 0.00002300		-0.00012545		-0.00027084
O		0.82871292		0.66431817		0.71643252		 0.00001700		-0.00004269		-0.00014626
O		6.40552806		7.25656266		4.33384974		-0.00001700		 0.00004269		 0.00014626
O		8.00732085		-0.19711459		1.80870812		 0.00018927		 0.00006061		 0.00013806
O		-0.77307987		8.11799640		3.24157512		-0.00018927		-0.00006061		-0.00013806
O		5.16351910		4.53863640		0.71643252		-0.00022673		-0.00003630		-0.00023293
O		2.07072188		3.38224541		4.33384974		 0.00022673		 0.00003630		 0.00023293
O		2.60242734		4.84596745		1.80870812		 0.00031369		 0.00004339		 0.00017313
O		4.63181461		3.07491436		3.24157512		-0.00031369		-0.00004339		-0.00017313
O		2.79161873		1.86392328		1.60477784		-0.00081142		 0.00015479		 0.00003241
O		4.44262322		6.05695755		3.44550540		 0.00081142		-0.00015479		-0.00003241
O		5.69494597		1.51552444		0.92036378		-0.00046371		-0.00009724		-0.00003684
O		1.53929599		6.40535737		4.12991947		 0.00046371		 0.00009724		 0.00003684
O		7.12642393		5.73824151		1.60477784		-0.00080913		 0.00020458		 0.00003299
O		0.10781606		2.18264030		3.44550540		 0.00080913		-0.00020458		-0.00003299
O		0.29005148		6.55860648		0.92036378		-0.00042892		-0.00009058		-0.00002688
O		6.94419047		1.36227533		4.12991947		 0.00042892		 0.00009058		 0.00002688
O		1.96853063		-0.08294388		5.02720328		 0.00033125		 0.00002780		-0.00028433
O		5.26571035		8.00382373		0.02307997		-0.00033125		-0.00002780		 0.00028433
O		5.58078802		-0.51641528		2.54822061		-0.00047090		-0.00047543		-0.00042064
O		1.65345296		8.43729513		2.50206165		 0.00047090		 0.00047543		 0.00042064
O		6.30333681		3.79137533		5.02720328		 0.00026763		 0.00004202		-0.00025411
O		0.93090417		4.12950746		0.02307997		-0.00026763		-0.00004202		 0.00025411
O		0.17589255		4.52666774		2.54822061		-0.00042916		-0.00049682		-0.00036561
O		7.05834842		3.39421309		2.50206165		 0.00042916		 0.00049682		 0.00036561
