# total energy = -22469.3198534 eV

CRYSTAL
PRIMVEC
		9.73970023		0.38958762		0.00000000
		0.35669959		8.91740210		0.00000000
		-1.43536642		-0.05741271		5.05028100
PRIMECORD
   40 1
Mg		-0.03493402		8.08335923		1.26257074		-0.00007739		 0.00064135		 0.00027606
Mg		-1.04374060		0.77662627		3.78771221		 0.00007739		-0.00064135		-0.00027606
Mg		4.65656824		3.81945296		1.26257074		-0.00009543		 0.00069678		 0.00028255
Mg		4.00445737		5.43012113		3.78771221		 0.00009543		-0.00069678		-0.00028255
Ca		-0.25130585		2.67406360		1.26257074		-0.00001928		 0.00008034		 0.00007686
Ca		-0.82736877		6.18592092		3.78771221		 0.00001928		-0.00008034		-0.00007686
Ca		4.79689211		7.32755749		1.26257074		-0.00000545		-0.00000057		 0.00007444
Ca		3.86413252		1.92201465		3.78771221		 0.00000545		 0.00000057		-0.00007444
Si		2.49142881		0.92934017		1.15833305		 0.00029468		 0.00018514		 0.00021018
Si		6.16959583		8.32023294		3.89194991		-0.00029468		-0.00018514		-0.00021018
Si		6.59706706		1.09356586		1.36680940		-0.00003302		 0.00077763		-0.00050206
Si		2.06395758		8.15600823		3.68347355		 0.00003302		-0.00077763		 0.00050206
Si		7.53962677		5.58283406		1.15833305		-0.00055354		-0.00030529		-0.00012287
Si		1.12139786		3.66673906		3.89194991		 0.00055354		 0.00030529		 0.00012287
Si		1.90556479		5.35747213		1.36680940		 0.00082917		 0.00024838		-0.00012044
Si		6.75546082		3.89210197		3.68347355		-0.00082917		-0.00024838		 0.00012044
O		0.95270003		0.81179034		0.71643260		-0.00055840		 0.00023714		-0.00032646
O		7.70832461		8.43778278		4.33385035		 0.00055840		-0.00023714		 0.00032646
O		8.13130810		1.09893477		1.80870790		 0.00042464		-0.00029175		 0.00059590
O		0.52971654		8.15063932		3.24157506		-0.00042464		 0.00029175		-0.00059590
O		6.00089897		5.46528422		0.71643260		-0.00002448		 0.00032680		-0.00015583
O		2.66012665		3.78428890		4.33385035		 0.00002448		-0.00032680		 0.00015583
O		3.43980583		5.36284104		1.80870790		-0.00011864		-0.00023243		 0.00042371
O		5.22121881		3.88673305		3.24157506		 0.00011864		 0.00023243		-0.00042371
O		3.14858596		2.35341802		1.60477777		 0.00003436		-0.00027121		 0.00036554
O		5.51243965		6.89615510		3.44550519		-0.00003436		 0.00027121		-0.00036554
O		6.05191245		2.46955057		0.92036371		 0.00007157		-0.00030188		 0.00021883
O		2.60911316		6.78002157		4.12991924		-0.00007157		 0.00030188		-0.00021883
O		8.19678393		7.00691288		1.60477777		 0.00032191		 0.00018271		 0.00051126
O		0.46424071		2.24266121		3.44550519		-0.00032191		-0.00018271		-0.00051126
O		1.36041018		6.73345782		0.92036371		-0.00024535		 0.00025447		 0.00005724
O		7.30061446		2.51611628		4.12991924		 0.00024535		-0.00025447		-0.00005724
O		1.99341403		0.23500707		5.02720285		 0.00037442		 0.00012198		 0.00043011
O		6.66761061		9.01456604		0.02308010		-0.00037442		-0.00012198		-0.00043011
O		5.60567048		0.37949702		2.54822060		 0.00043019		-0.00025869		-0.00031947
O		3.05535416		8.87007610		2.50206235		-0.00043019		 0.00025869		 0.00031947
O		7.04161297		4.88850193		5.02720285		 0.00049447		 0.00013135		 0.00048505
O		1.61941264		4.36107216		0.02308010		-0.00049447		-0.00013135		-0.00048505
O		0.91416918		4.64340426		2.54822060		 0.00030819		-0.00023624		-0.00036007
O		7.74685643		4.60616983		2.50206235		-0.00030819		 0.00023624		 0.00036007
