# total energy = -41273.4466386 eV

CRYSTAL
PRIMVEC
		8.52599986		0.00000000		0.00000000
		0.00000000		8.12000027		0.00000000
		0.00000000		0.00000000		8.12000027
PRIMECORD
   56 1
Si		1.06574998		1.01499982		1.01499982		-0.00000002		-0.00000007		-0.00000007
Si		7.46024987		7.10499960		7.10499960		 0.00000002		 0.00000007		 0.00000007
Si		5.32874991		1.01499982		5.07499996		 0.00000088		-0.00000007		 0.00000007
Si		3.19724995		7.10499960		3.04500031		-0.00000088		 0.00000007		-0.00000007
Si		1.06574998		5.07499996		5.07499996		-0.00000023		-0.00000009		-0.00000009
Si		7.46024987		3.04500031		3.04500031		 0.00000023		 0.00000009		 0.00000009
Si		5.32874991		5.07499996		1.01499982		 0.00000088		 0.00000007		-0.00000007
Si		3.19724995		3.04500031		7.10499960		-0.00000088		-0.00000007		 0.00000007
Mg		4.26299993		4.06000013		4.06000013		0.00000000		0.00000000		0.00000000
Mg		2.13149996		6.08999978		0.00000000		-0.00000009		 0.00000018		 0.00000006
Mg		6.39449989		2.02999964		0.00000000		 0.00000009		-0.00000018		-0.00000006
Mg		6.39449989		0.00000000		2.02999964		 0.00000009		-0.00000006		-0.00000018
Mg		2.13149996		0.00000000		6.08999978		-0.00000009		 0.00000006		 0.00000018
Mg		0.00000000		2.02999964		6.08999978		0.00000000		 0.00000006		-0.00000006
Mg		0.00000000		6.08999978		2.02999964		0.00000000		-0.00000006		 0.00000006
Mg		4.26299993		0.00000000		0.00000000		0.00000000		0.00000000		0.00000000
Mg		2.13149996		2.02999964		4.06000013		-0.00000014		 0.00000022		-0.00000005
Mg		6.39449989		6.08999978		4.06000013		 0.00000014		-0.00000022		 0.00000005
Mg		6.39449989		4.06000013		6.08999978		 0.00000014		 0.00000005		-0.00000022
Mg		2.13149996		4.06000013		2.02999964		-0.00000014		-0.00000005		 0.00000022
Mg		0.00000000		4.06000013		0.00000000		0.00000000		0.00000000		0.00000000
Mg		4.26299993		2.02999964		2.02999964		-0.00000003		-0.00000005		-0.00000005
Mg		4.26299993		6.08999978		6.08999978		 0.00000003		 0.00000005		 0.00000005
Mg		0.00000000		0.00000000		4.06000013		0.00000000		0.00000000		0.00000000
O		2.05988157		1.96179164		1.96179164		-0.00062987		 0.00022176		 0.00022176
O		6.46611829		6.15820777		6.15820777		 0.00062987		-0.00022176		-0.00022176
O		4.33461833		0.06820800		6.02179178		 0.00062978		-0.00022192		 0.00022193
O		4.19138153		8.05179227		2.09820764		-0.00062978		 0.00022192		-0.00022193
O		0.07161840		6.02179178		4.12820813		 0.00062995		 0.00022166		-0.00022169
O		8.45438146		2.09820764		3.99179214		-0.00062995		-0.00022166		 0.00022169
O		6.32288149		4.12820813		0.06820800		-0.00063023		-0.00022159		-0.00022160
O		2.20311836		3.99179214		8.05179227		 0.00063023		 0.00022159		 0.00022160
O		8.45438146		3.99179214		2.09820764		-0.00062995		 0.00022169		-0.00022166
O		0.07161840		4.12820813		6.02179178		 0.00062995		-0.00022169		 0.00022166
O		4.19138153		2.09820764		8.05179227		-0.00062978		-0.00022193		 0.00022192
O		4.33461833		6.02179178		0.06820800		 0.00062978		 0.00022193		-0.00022192
O		2.20311836		8.05179227		3.99179214		 0.00063023		 0.00022160		 0.00022159
O		6.32288149		0.06820800		4.12820813		-0.00063023		-0.00022160		-0.00022159
O		2.05988157		6.02179178		6.02179178		-0.00062986		 0.00022168		 0.00022168
O		6.46611829		2.09820764		2.09820764		 0.00062986		-0.00022168		-0.00022168
O		4.33461833		4.12820813		1.96179164		 0.00062977		-0.00022195		 0.00022191
O		4.19138153		3.99179214		6.15820777		-0.00062977		 0.00022195		-0.00022191
O		0.07161840		1.96179164		0.06820800		 0.00062999		 0.00022166		-0.00022172
O		8.45438146		6.15820777		8.05179227		-0.00062999		-0.00022166		 0.00022172
O		8.45438146		8.05179227		6.15820777		-0.00062999		 0.00022172		-0.00022166
O		0.07161840		0.06820800		1.96179164		 0.00062999		-0.00022172		 0.00022166
O		4.19138153		6.15820777		3.99179214		-0.00062977		-0.00022191		 0.00022195
O		4.33461833		1.96179164		4.12820813		 0.00062977		 0.00022191		-0.00022195
O		6.32288149		1.96179164		6.02179178		-0.00063022		 0.00022167		 0.00022166
O		2.20311836		6.15820777		2.09820764		 0.00063022		-0.00022167		-0.00022166
O		2.05988157		4.12820813		4.12820813		-0.00062979		-0.00022187		-0.00022187
O		6.46611829		3.99179214		3.99179214		 0.00062979		 0.00022187		 0.00022187
O		6.46611829		8.05179227		8.05179227		 0.00062986		 0.00022174		 0.00022174
O		2.05988157		0.06820800		0.06820800		-0.00062986		-0.00022174		-0.00022174
O		6.32288149		6.02179178		1.96179164		-0.00063022		 0.00022166		 0.00022167
O		2.20311836		2.09820764		6.15820777		 0.00063022		-0.00022166		-0.00022167
