# total energy = -41270.7346528 eV

CRYSTAL
PRIMVEC
		8.93199995		0.00000000		0.00000000
		0.00000000		8.12000077		0.00000000
		0.00000000		0.00000000		8.12000077
PRIMECORD
   56 1
Si		1.11649999		1.01500032		1.01500032		-0.00000031		 0.00000024		 0.00000024
Si		7.81549996		7.10499955		7.10499955		 0.00000031		-0.00000024		-0.00000024
Si		5.58249997		1.01500032		5.07499981		-0.00000019		 0.00000033		-0.00000026
Si		3.34949998		7.10499955		3.04500006		 0.00000019		-0.00000033		 0.00000026
Si		1.11649999		5.07499981		5.07499981		-0.00000031		-0.00000009		-0.00000009
Si		7.81549996		3.04500006		3.04500006		 0.00000031		 0.00000009		 0.00000009
Si		5.58249997		5.07499981		1.01500032		-0.00000019		-0.00000026		 0.00000033
Si		3.34949998		3.04500006		7.10499955		 0.00000019		 0.00000026		-0.00000033
Mg		4.46599998		4.06000038		4.06000038		0.00000000		0.00000000		0.00000000
Mg		2.23299999		6.09000013		0.00000000		 0.00000021		-0.00000040		 0.00000026
Mg		6.69899996		2.02999975		0.00000000		-0.00000021		 0.00000040		-0.00000026
Mg		6.69899996		0.00000000		2.02999975		-0.00000021		-0.00000026		 0.00000040
Mg		2.23299999		0.00000000		6.09000013		 0.00000021		 0.00000026		-0.00000040
Mg		0.00000000		2.02999975		6.09000013		0.00000000		 0.00000049		-0.00000049
Mg		0.00000000		6.09000013		2.02999975		0.00000000		-0.00000049		 0.00000049
Mg		4.46599998		0.00000000		0.00000000		0.00000000		0.00000000		0.00000000
Mg		2.23299999		2.02999975		4.06000038		 0.00000033		 0.00000065		-0.00000009
Mg		6.69899996		6.09000013		4.06000038		-0.00000033		-0.00000065		 0.00000009
Mg		6.69899996		4.06000038		6.09000013		-0.00000033		 0.00000009		-0.00000065
Mg		2.23299999		4.06000038		2.02999975		 0.00000033		-0.00000009		 0.00000065
Mg		0.00000000		4.06000038		0.00000000		0.00000000		0.00000000		0.00000000
Mg		4.46599998		2.02999975		2.02999975		-0.00000026		 0.00000048		 0.00000048
Mg		4.46599998		6.09000013		6.09000013		 0.00000026		-0.00000048		-0.00000048
Mg		0.00000000		0.00000000		4.06000038		0.00000000		0.00000000		0.00000000
O		2.15797119		1.96179231		1.96179231		-0.00002386		-0.00013890		-0.00013890
O		6.77402787		6.15820756		6.15820756		 0.00002386		 0.00013890		 0.00013890
O		4.54102788		0.06820832		6.02179180		 0.00002343		 0.00013962		-0.00014020
O		4.39097118		8.05179155		2.09820807		-0.00002343		-0.00013962		 0.00014020
O		0.07502880		6.02179180		4.12820781		 0.00002321		-0.00013973		 0.00013890
O		8.85697115		2.09820807		3.99179206		-0.00002321		 0.00013973		-0.00013890
O		6.62397116		4.12820781		0.06820832		-0.00002400		 0.00013980		 0.00013951
O		2.30802879		3.99179206		8.05179155		 0.00002400		-0.00013980		-0.00013951
O		8.85697115		3.99179206		2.09820807		-0.00002321		-0.00013890		 0.00013973
O		0.07502880		4.12820781		6.02179180		 0.00002321		 0.00013890		-0.00013973
O		4.39097118		2.09820807		8.05179155		-0.00002343		 0.00014020		-0.00013962
O		4.54102788		6.02179180		0.06820832		 0.00002343		-0.00014020		 0.00013962
O		2.30802879		8.05179155		3.99179206		 0.00002400		-0.00013951		-0.00013980
O		6.62397116		0.06820832		4.12820781		-0.00002400		 0.00013951		 0.00013980
O		2.15797119		6.02179180		6.02179180		-0.00002395		-0.00013927		-0.00013927
O		6.77402787		2.09820807		2.09820807		 0.00002395		 0.00013927		 0.00013927
O		4.54102788		4.12820781		1.96179231		 0.00002319		 0.00013919		-0.00013844
O		4.39097118		3.99179206		6.15820756		-0.00002319		-0.00013919		 0.00013844
O		0.07502880		1.96179231		0.06820832		 0.00002356		-0.00013903		 0.00013947
O		8.85697115		6.15820756		8.05179155		-0.00002356		 0.00013903		-0.00013947
O		8.85697115		8.05179155		6.15820756		-0.00002356		-0.00013947		 0.00013903
O		0.07502880		0.06820832		1.96179231		 0.00002356		 0.00013947		-0.00013903
O		4.39097118		6.15820756		3.99179206		-0.00002319		 0.00013844		-0.00013919
O		4.54102788		1.96179231		4.12820781		 0.00002319		-0.00013844		 0.00013919
O		6.62397116		1.96179231		6.02179180		-0.00002428		-0.00013882		-0.00013994
O		2.30802879		6.15820756		2.09820807		 0.00002428		 0.00013882		 0.00013994
O		2.15797119		4.12820781		4.12820781		-0.00002325		 0.00013944		 0.00013944
O		6.77402787		3.99179206		3.99179206		 0.00002325		-0.00013944		-0.00013944
O		6.77402787		8.05179155		8.05179155		 0.00002385		-0.00013929		-0.00013929
O		2.15797119		0.06820832		0.06820832		-0.00002385		 0.00013929		 0.00013929
O		6.62397116		6.02179180		1.96179231		-0.00002428		-0.00013994		-0.00013882
O		2.30802879		2.09820807		6.15820756		 0.00002428		 0.00013994		 0.00013882
