# total energy = -12353.9791333 eV

CRYSTAL
PRIMVEC
		2.68131260		0.00000000		0.00000000
		0.00000000		9.05745708		0.00008125
		0.00000000		0.00006155		6.65586216
PRIMECORD
   20 1
O		0.00000000		0.66504925		1.66428277		0.00000000		-0.00010261		-0.00005328
O		0.00000000		8.39246298		4.99166113		-0.00000001		 0.00012202		 0.00005329
O		1.34065606		5.19378543		1.66432339		 0.00000001		-0.00012206		-0.00005327
O		1.34065606		3.86374133		4.99162026		-0.00000000		 0.00010264		 0.00005324
O		0.00000000		3.37661418		2.95359234		 0.00000002		 0.00006077		 0.00016594
O		0.00000000		5.68091037		3.70235255		-0.00000003		-0.00007783		-0.00016987
O		0.00000000		5.68084808		6.28181172		 0.00000002		-0.00009483		 0.00004544
O		0.00000000		3.37667622		0.37413046		 0.00000002		 0.00007792		-0.00004157
O		1.34065630		7.90533804		2.95363197		-0.00000003		 0.00007780		 0.00016981
O		1.34065606		1.15217665		3.70231045		 0.00000002		-0.00006080		-0.00016593
O		1.34065606		1.15211437		6.28177232		-0.00000003		-0.00007795		 0.00004158
O		1.34065630		7.90540008		0.37417281		 0.00000002		 0.00009487		-0.00004544
Si		0.00000000		0.00001083		0.00000000		-0.00000002		-0.00002532		 0.00000158
Si		0.00000000		0.00004161		3.32793157		 0.00000001		-0.00002552		-0.00000164
Si		1.34065581		4.52871845		0.00004112		 0.00000003		 0.00002536		-0.00000161
Si		1.34065606		4.52874898		3.32797121		-0.00000002		 0.00002555		 0.00000168
Mg		0.00000000		2.34291734		4.99097891		0.00000000		-0.00022716		 0.00058390
Mg		0.00000000		6.71459933		1.66496474		-0.00000001		 0.00023159		-0.00058379
Mg		1.34065630		6.87164908		4.99101953		-0.00000001		-0.00023161		 0.00058384
Mg		1.34065630		2.18587300		1.66492387		-0.00000001		 0.00022717		-0.00058390
