# total energy = -12353.8956293 eV

CRYSTAL
PRIMVEC
		2.72773362		0.00000000		0.00000000
		0.00000000		9.27852007		0.00022897
		0.00000000		0.00017726		6.78823159
PRIMECORD
   20 1
O		0.00000000		0.68287758		1.69764558		-0.00000000		-0.00041909		-0.00008726
O		0.00000000		8.59585373		5.09081621		0.00000000		 0.00034284		 0.00008733
O		1.36386607		5.32210487		1.69776129		0.00000000		-0.00034284		-0.00008733
O		1.36386582		3.95656070		5.09070173		-0.00000000		 0.00041909		 0.00008726
O		0.00000000		3.48030894		3.01862853		 0.00000004		-0.00009229		 0.00043240
O		0.00000000		5.79835910		3.76982760		-0.00000004		 0.00016179		-0.00041728
O		0.00000000		5.79816534		6.41309713		 0.00000001		 0.00014107		 0.00033459
O		0.00000000		3.48050270		0.37537303		 0.00000001		-0.00007157		-0.00034972
O		1.36386632		8.11959951		3.01874991		 0.00000001		-0.00016178		 0.00041725
O		1.36386632		1.15912934		3.76971878		-0.00000001		 0.00009231		-0.00043237
O		1.36386632		1.15893583		6.41297452		-0.00000002		 0.00007155		 0.00034974
O		1.36386632		8.11979351		0.37548037		-0.00000000		-0.00014109		-0.00033460
Si		0.00000000		-0.00003915		0.00000271		-0.00000003		 0.00009901		-0.00000827
Si		0.00000000		0.00004949		3.39411284		-0.00000001		 0.00009918		 0.00000821
Si		1.36386582		4.63929967		0.00011227		 0.00000002		-0.00009902		 0.00000827
Si		1.36386607		4.63938880		3.39423447		 0.00000001		-0.00009917		-0.00000821
Mg		0.00000000		2.42439231		5.08964282		-0.00000001		 0.00035255		 0.00059487
Mg		0.00000000		6.85431266		1.69881995		-0.00000001		-0.00036963		-0.00059498
Mg		1.36386607		7.06364594		5.08975805		 0.00000001		 0.00036965		 0.00059494
Mg		1.36386632		2.21504622		1.69870448		 0.00000002		-0.00035255		-0.00059485
