# total energy = -20635.9205879 eV

CRYSTAL
PRIMVEC
		10.83720648		0.00000000		-0.00136680
		0.00000000		6.25592402		0.00000000
		-0.00117585		0.00000000		4.91257066
PRIMECORD
   28 1
Si		3.61134792		0.00000000		4.53203445		-0.00005148		-0.00000035		-0.00006155
Si		7.22467568		0.00000000		0.37917143		 0.00005136		-0.00000019		 0.00006148
Si		9.03073305		3.12796301		4.53133899		-0.00001006		 0.00000012		-0.00007056
Si		1.80529055		3.12796201		0.37986689		 0.00001013		 0.00000028		 0.00007053
Mg		0.00000000		0.00000000		0.00000000		 0.00000010		-0.00000020		-0.00000006
Mg		5.41860324		3.12796100		-0.00068340		-0.00000006		 0.00000015		 0.00000007
Mg		5.41801130		0.00000000		2.45560294		-0.00000007		-0.00000031		-0.00000008
Mg		-0.00058893		3.12796201		2.45628634		 0.00000009		 0.00000023		 0.00000009
Mg		2.70680470		1.56372272		2.45608433		 0.00059173		 0.00022758		-0.00000171
Mg		8.12921990		4.69220331		2.45512154		-0.00059185		-0.00022768		 0.00000174
Mg		8.12921890		1.56372372		2.45512154		-0.00059181		 0.00022766		 0.00000176
Mg		2.70680470		4.69220230		2.45608433		 0.00059178		-0.00022764		-0.00000174
O		8.74235935		0.00000000		1.10594622		-0.00003693		-0.00000007		-0.00013528
O		2.09366425		0.00000000		3.80525965		 0.00003648		 0.00000001		 0.00013529
O		3.32213203		3.12796201		1.10706378		 0.00003068		-0.00000002		-0.00012741
O		7.51389056		3.12796301		3.80414209		-0.00003059		 0.00000002		 0.00012745
O		3.61120923		0.00000000		1.26649095		 0.00006623		 0.00000006		-0.00017278
O		7.22481437		0.00000000		3.64471492		-0.00006606		 0.00000002		 0.00017311
O		9.03074913		3.12796301		1.26576333		 0.00020391		-0.00000009		-0.00018567
O		1.80527447		3.12796201		3.64544254		-0.00020395		-0.00000011		 0.00018518
O		1.04595476		1.81400893		1.10646179		 0.00007152		-0.00007739		-0.00011682
O		9.79006884		4.44191610		3.80474409		-0.00007086		 0.00007891		 0.00011680
O		9.79006884		1.81400993		3.80474308		-0.00007099		-0.00007852		 0.00011695
O		1.04595476		4.44191610		1.10646179		 0.00007080		 0.00007874		-0.00011671
O		6.46586349		4.94195083		1.10583567		 0.00004408		-0.00011530		-0.00013145
O		4.37016010		1.31397519		3.80537020		-0.00004442		 0.00011422		 0.00013143
O		4.37016010		4.94195083		3.80537020		-0.00004401		-0.00011496		 0.00013137
O		6.46586349		1.31397519		1.10583567		 0.00004425		 0.00011487		-0.00013145
