# total energy = -20637.1066101 eV

CRYSTAL
PRIMVEC
		10.44607053		0.00000000		-0.00057285
		0.00000000		6.02916587		0.00000000
		-0.00064320		0.00000000		4.83024106
PRIMECORD
   28 1
Si		3.48191598		0.00000000		4.47192037		-0.00005757		-0.00000009		-0.00001609
Si		6.96351437		0.00000000		0.35774181		 0.00005749		-0.00000006		 0.00001577
Si		8.70500853		3.01458394		4.47159073		-0.00004271		 0.00000010		-0.00002504
Si		1.74042283		3.01458394		0.35807246		 0.00004288		 0.00000018		 0.00002445
Mg		0.00000000		0.00000000		0.00000000		-0.00000004		 0.00000007		 0.00000005
Mg		5.22303728		3.01458394		-0.00028743		 0.00000001		-0.00000002		-0.00000007
Mg		5.22271568		0.00000000		2.41483109		0.00000000		 0.00000007		 0.00000006
Mg		-0.00032060		3.01458293		2.41511852		-0.00000001		-0.00000001		-0.00000005
Mg		2.61002822		1.50706383		2.41506526		 0.00008959		 0.00021481		 0.00000273
Mg		7.83540313		4.52210404		2.41459793		-0.00008967		-0.00021481		-0.00000279
Mg		7.83540313		1.50706484		2.41459793		-0.00008958		 0.00021480		-0.00000274
Mg		2.61002822		4.52210304		2.41506526		 0.00008957		-0.00021479		 0.00000270
O		8.47012294		0.00000000		1.07970266		 0.00008425		-0.00000000		 0.00014216
O		1.97530741		0.00000000		3.74995953		-0.00008466		-0.00000015		-0.00014207
O		3.24657311		3.01458394		1.08026244		 0.00006529		 0.00000011		 0.00014681
O		7.19885824		3.01458494		3.74940075		-0.00006472		 0.00000003		-0.00014696
O		3.48176824		0.00000000		1.27275210		 0.00000538		-0.00000010		 0.00016908
O		6.96366211		0.00000000		3.55691109		-0.00000522		-0.00000013		-0.00016886
O		8.70535425		3.01458394		1.27238829		 0.00002128		 0.00000005		 0.00015753
O		1.74007711		3.01458394		3.55727490		-0.00002145		 0.00000001		-0.00015742
O		0.98700045		1.71004067		1.08025038		-0.00000128		-0.00004235		 0.00009296
O		9.45843090		4.31912721		3.74941281		 0.00000175		 0.00004270		-0.00009245
O		9.45842989		1.71004067		3.74941281		 0.00000169		-0.00004240		-0.00009263
O		0.98700045		4.31912721		1.08025038		-0.00000129		 0.00004276		 0.00009250
O		6.21046385		4.72460350		1.08000416		 0.00001274		-0.00003615		 0.00007964
O		4.23496750		1.30456437		3.74965903		-0.00001331		 0.00003551		-0.00007937
O		4.23496750		4.72460350		3.74965903		-0.00001318		-0.00003590		-0.00007940
O		6.21046385		1.30456437		1.08000416		 0.00001279		 0.00003577		 0.00007949
