# total energy = -13383.3162445 eV	

CRYSTAL	
PRIMVEC	
		3.21879318		-0.00000305		0.00000611	
		-1.60940117		2.78755387		-0.00000611	
		0.00002748		-0.00001832		26.29903974	
PRIMCOORD
   18 1	
O		0.00000458		0.00000000		7.70525485		 0.00000058		-0.00000038		-0.00009505	
O		0.00002229		-0.00001801		18.59387587		-0.00000007		 0.00000035		 0.00007751	
O		1.60940727		0.92917414		9.92278035		-0.00000029		 0.00000017		-0.00061406	
O		0.00002351		1.85835195		16.37633572		-0.00000030		-0.00000011		 0.00089575	
O		1.60939903		0.92917903		3.09920259		-0.00000027		 0.00000037		 0.00107631	
O		0.00001710		1.85835439		23.19952117		 0.00000056		-0.00000034		-0.00055669	
O		0.00000000		1.85836630		5.31873268		-0.00000003		 0.00000009		-0.00015002	
O		1.60941949		0.92916743		20.98026188		-0.00000007		-0.00000014		 0.00013504	
H		1.60940697		0.92917658		10.88365837		-0.00000010		 0.00000002		 0.00078380	
H		0.00001374		1.85835775		15.41560944		 0.00000023		-0.00000017		-0.00106230	
H		1.60939689		0.92918147		2.13838013		 0.00000008		-0.00000006		-0.00089178	
H		0.00002351		1.85835195		24.16059733		-0.00000014		 0.00000007		 0.00043114	
Mg		0.00001007		1.85835989		8.91210057		-0.00000007		 0.00000018		-0.00028203	
Mg		1.60941796		0.92916529		17.38706130		0.00000000		 0.00000027		 0.00027403	
Mg		0.00000000		0.00000000		4.11096588		 0.00000060		-0.00000043		 0.00008817	
Mg		0.00002626		-0.00001801		22.18795846		-0.00000055		 0.00000040		-0.00011237	
Mg		1.60940422		0.92917903		6.51198613		-0.00000043		 0.00000005		-0.00019613	
Mg		0.00001801		1.85835500		19.78707559		 0.00000028		-0.00000034		 0.00019870	
