# total energy = -12280.8616936 eV

CRYSTAL
PRIMVEC
		3.14299982		0.00000000		0.00000000
		-1.57149991		2.72191642		0.00000000
		0.00000000		0.00000000		22.77199863
PRIMECORD
   22 1
O		0.00000000		1.81461189		15.30961406		0.00000000		-0.00000000		 0.00029909
O		1.57149991		0.90730610		7.46238457		0.00000000		0.00000000		-0.00029909
O		1.57149991		0.90730610		17.52077510		0.00000000		0.00000000		 0.00038648
O		0.00000000		1.81461189		5.25122259		0.00000000		-0.00000000		-0.00038648
O		0.00000000		1.81461189		10.28155735		0.00000000		0.00000000		 0.00052544
O		1.57149991		0.90730610		12.49044128		0.00000000		-0.00000000		-0.00052544
O		0.00000000		1.81461189		20.41965090		0.00000000		-0.00000000		-0.00059552
O		1.57149991		0.90730610		2.35234679		0.00000000		0.00000000		 0.00059552
O		0.00000000		0.00000000		0.00000000		0.00000000		0.00000000		0.00000000
H		0.00000000		1.81461189		14.32130908		0.00000000		0.00000000		-0.00043381
H		1.57149991		0.90730610		8.45068860		0.00000000		-0.00000000		 0.00043381
H		0.00000000		1.81461189		9.29097558		0.00000000		0.00000000		-0.00041539
H		1.57149991		0.90730610		13.48102336		0.00000000		-0.00000000		 0.00041539
H		0.00000000		1.81461189		19.42906881		0.00000000		-0.00000000		 0.00043536
H		1.57149991		0.90730610		3.34292887		0.00000000		0.00000000		-0.00043536
H		1.57149991		0.90730610		18.51135687		0.00000000		0.00000000		-0.00084251
H		0.00000000		1.81461189		4.26064082		0.00000000		-0.00000000		 0.00084251
Mg		0.00000000		0.00000000		16.41633313		0.00000000		0.00000000		-0.00022149
Mg		0.00000000		0.00000000		6.35566455		0.00000000		-0.00000000		 0.00022149
Mg		1.57149991		0.90730610		21.53547869		0.00000000		-0.00000000		-0.00016466
Mg		0.00000000		1.81461189		1.23651993		0.00000000		-0.00000000		 0.00016466
Mg		0.00000000		0.00000000		11.38599931		0.00000000		0.00000000		0.00000000
