# total energy = -9214.27483963 eV	

CRYSTAL	
PRIMVEC	
		5.53687202		0.00008522		-0.00022902	
		-2.76835878		4.79512004		-0.00011717	
		-0.00026630		-0.00033021		9.63988372	
PRIMCOORD
   18 1	
Mg		1.83661827		0.00040052		4.15832114		-0.00017113		-0.00003042		 0.00009303	
Mg		-0.91816294		1.59089955		4.15821249		 0.00008490		-0.00018429		 0.00010151	
Mg		1.85031248		3.20504921		4.15869982		 0.00009214		 0.00013685		 0.00011456	
Si		-0.00000799		3.19666449		1.40158050		 0.00000174		 0.00000560		 0.00016802	
Si		2.76840192		1.59831227		1.40154375		-0.00000758		 0.00000932		 0.00016543	
H		3.66163971		-0.00010066		6.11404421		 0.00015548		 0.00002178		 0.00090024	
H		-1.83081506		3.17072528		6.11418748		-0.00006529		 0.00014503		 0.00089065	
H		0.93549427		1.62048175		6.11397125		 0.00001308		 0.00003334		 0.00089928	
H		-0.00009747		-0.00021197		2.14762896		-0.00000593		-0.00001198		-0.00105045	
O		0.00003142		3.19684451		3.02676244		 0.00001421		 0.00000370		-0.00023774	
O		2.76842216		1.59850454		3.02672356		-0.00000168		 0.00000767		-0.00023550	
O		2.76437493		-0.00043460		10.49882953		-0.00027461		 0.00001733		 0.00001078	
O		-1.38264923		2.39382170		10.49888811		 0.00014517		-0.00022345		 0.00001259	
O		1.38576334		2.40034978		10.49872674		 0.00013251		 0.00023456		 0.00000719	
O		3.68153499		0.00076002		5.15293135		-0.00056258		-0.00004525		-0.00098866	
O		-1.84020427		3.18849281		5.15307409		 0.00023551		-0.00043952		-0.00099327	
O		0.92795585		1.60762478		5.15276731		 0.00020493		 0.00029821		-0.00094551	
O		-0.00007829		-0.00006498		3.11035187		 0.00000914		 0.00002150		 0.00108785	
