# total energy = -24711.1968193 eV

CRYSTAL
PRIMVEC
		9.20099977		0.00000000		0.00000000
		0.00000000		8.62099635		0.00000000
		-0.97849872		0.00000000		4.44875700
PRIMECORD
   40 1
Si		2.54259968		0.78882195		0.93957757		-0.00046253		 0.00003655		 0.00009742
Si		5.67990229		7.83217900		3.50918218		 0.00046253		-0.00003655		-0.00009742
Si		6.16915073		0.78882195		1.28480185		 0.00046186		 0.00003742		-0.00009790
Si		2.05335124		7.83217900		3.16395791		-0.00046186		-0.00003742		 0.00009790
Si		7.14309956		5.09932197		0.93957757		-0.00048917		 0.00001460		 0.00008421
Si		1.07940241		3.52167898		3.50918218		 0.00048917		-0.00001460		-0.00008421
Si		1.56865085		5.09932197		1.28480185		 0.00048882		 0.00001530		-0.00008457
Si		6.65385112		3.52167898		3.16395791		-0.00048882		-0.00001530		 0.00008457
Mg		-0.24462422		7.80804017		1.11219017		 0.00000001		-0.00037547		-0.00000001
Mg		-0.73387266		0.81295986		3.33656959		-0.00000001		 0.00037547		 0.00000001
Mg		4.35587567		3.49754016		1.11219017		 0.00000002		-0.00037334		-0.00000000
Mg		3.86662722		5.12345987		3.33656959		-0.00000002		 0.00037334		0.00000000
Mg		-0.24462422		2.36387762		1.11219017		-0.00000001		-0.00091292		-0.00000001
Mg		-0.73387266		6.25712149		3.33656959		 0.00000001		 0.00091292		 0.00000001
Mg		4.35587567		6.67437763		1.11219017		-0.00000001		-0.00091567		0.00000000
Mg		3.86662722		1.94662240		3.33656959		 0.00000001		 0.00091567		-0.00000000
O		0.98190953		0.78795890		0.61837803		 0.00011289		-0.00060449		 0.00080535
O		7.24059152		7.83304113		3.83038265		-0.00011289		 0.00060449		-0.00080535
O		7.72984088		0.78795890		1.60600231		-0.00011245		-0.00060453		-0.00080527
O		0.49266109		7.83304113		2.84275837		 0.00011245		 0.00060453		 0.00080527
O		5.58241126		5.09845983		0.61837803		 0.00013000		-0.00060224		 0.00080832
O		2.64009163		3.52254112		3.83038265		-0.00013000		 0.00060224		-0.00080832
O		3.12934099		5.09845983		1.60600231		-0.00012974		-0.00060228		-0.00080825
O		5.09316190		3.52254112		2.84275837		 0.00012974		 0.00060228		 0.00080825
O		3.13727133		2.04834957		1.63269533		-0.00040549		-0.00051319		-0.00006314
O		5.08523064		6.57265046		2.81606535		 0.00040549		 0.00051319		 0.00006314
O		5.57448000		2.04834957		0.59168501		 0.00040578		-0.00051389		 0.00006356
O		2.64802197		6.57265046		3.85707475		-0.00040578		 0.00051389		-0.00006356
O		7.73777122		6.35884959		1.63269533		-0.00039363		-0.00049098		-0.00005279
O		0.48473075		2.26214952		2.81606535		 0.00039363		 0.00049098		 0.00005279
O		0.97398011		6.35884959		0.59168501		 0.00039385		-0.00049147		 0.00005307
O		7.24852278		2.26214952		3.85707475		-0.00039385		 0.00049147		-0.00005307
O		2.38943063		0.52846678		4.07061615		-0.00052013		-0.00027481		-0.00042400
O		5.83307042		8.09253325		0.37814545		 0.00052013		 0.00027481		 0.00042400
O		5.34382197		0.52846678		2.60252487		 0.00052011		-0.00027498		 0.00042405
O		2.87867999		8.09253325		1.84623581		-0.00052011		 0.00027498		-0.00042405
O		6.98993144		4.83896680		4.07061615		-0.00051644		-0.00027382		-0.00042318
O		1.23257053		3.78203323		0.37814545		 0.00051644		 0.00027382		 0.00042318
O		0.74332209		4.83896680		2.60252487		 0.00051641		-0.00027396		 0.00042331
O		7.47918080		3.78203323		1.84623581		-0.00051641		 0.00027396		-0.00042331
