# total energy = -24715.9877542 eV

CRYSTAL
PRIMVEC
		9.20099977		0.00000000		0.00000000
		0.00000000		8.62099635		0.00000000
		-0.97849872		0.00000000		5.04994112
PRIMECORD
   40 1
Si		2.54259968		0.78882195		1.06654769		-0.00003686		 0.00014415		 0.00012207
Si		5.67990229		7.83217900		3.98339619		 0.00003686		-0.00014415		-0.00012207
Si		6.16915073		0.78882195		1.45842379		 0.00003827		 0.00014277		-0.00012073
Si		2.05335124		7.83217900		3.59152009		-0.00003827		-0.00014277		 0.00012073
Si		7.14309956		5.09932197		1.06654769		 0.00004074		 0.00019092		 0.00016308
Si		1.07940241		3.52167898		3.98339619		-0.00004074		-0.00019092		-0.00016308
Si		1.56865085		5.09932197		1.45842379		-0.00003923		 0.00018946		-0.00016167
Si		6.65385112		3.52167898		3.59152009		 0.00003923		-0.00018946		 0.00016167
Mg		-0.24462422		7.80804017		1.26248574		-0.00000004		 0.00064854		 0.00000007
Mg		-0.73387266		0.81295986		3.78745814		 0.00000004		-0.00064854		-0.00000007
Mg		4.35587567		3.49754016		1.26248574		-0.00000004		 0.00064295		 0.00000008
Mg		3.86662722		5.12345987		3.78745814		 0.00000004		-0.00064295		-0.00000008
Mg		-0.24462422		2.36387762		1.26248574		 0.00000003		-0.00003238		 0.00000007
Mg		-0.73387266		6.25712149		3.78745814		-0.00000003		 0.00003238		-0.00000007
Mg		4.35587567		6.67437763		1.26248574		 0.00000003		-0.00002477		 0.00000006
Mg		3.86662722		1.94662240		3.78745814		-0.00000003		 0.00002477		-0.00000006
O		0.98190953		0.78795890		0.70194243		-0.00031218		 0.00013824		-0.00005424
O		7.24059152		7.83304113		4.34800145		 0.00031218		-0.00013824		 0.00005424
O		7.72984088		0.78795890		1.82302997		 0.00031125		 0.00013828		 0.00005389
O		0.49266109		7.83304113		3.22691391		-0.00031125		-0.00013828		-0.00005389
O		5.58241126		5.09845983		0.70194243		-0.00036514		 0.00013248		-0.00006240
O		2.64009163		3.52254112		4.34800145		 0.00036514		-0.00013248		 0.00006240
O		3.12934099		5.09845983		1.82302997		 0.00036414		 0.00013254		 0.00006209
O		5.09316190		3.52254112		3.22691391		-0.00036414		-0.00013254		-0.00006209
O		3.13727133		2.04834957		1.85332978		 0.00006470		 0.00009701		 0.00014067
O		5.08523064		6.57265046		3.19661502		-0.00006470		-0.00009701		-0.00014067
O		5.57448000		2.04834957		0.67164170		-0.00006529		 0.00009828		-0.00014153
O		2.64802197		6.57265046		4.37830126		 0.00006529		-0.00009828		 0.00014153
O		7.73777122		6.35884959		1.85332978		 0.00003529		 0.00004841		 0.00011384
O		0.48473075		2.26214952		3.19661502		-0.00003529		-0.00004841		-0.00011384
O		0.97398011		6.35884959		0.67164170		-0.00003590		 0.00004978		-0.00011473
O		7.24852278		2.26214952		4.37830126		 0.00003590		-0.00004978		 0.00011473
O		2.38943063		0.52846678		4.62069884		 0.00014709		-0.00020356		 0.00021597
O		5.83307042		8.09253325		0.42924504		-0.00014709		 0.00020356		-0.00021597
O		5.34382197		0.52846678		2.95421652		-0.00014700		-0.00020345		-0.00021610
O		2.87867999		8.09253325		2.09572736		 0.00014700		 0.00020345		 0.00021610
O		6.98993144		4.83896680		4.62069884		 0.00013463		-0.00021021		 0.00021157
O		1.23257053		3.78203323		0.42924504		-0.00013463		 0.00021021		-0.00021157
O		0.74332209		4.83896680		2.95421652		-0.00013455		-0.00021012		-0.00021171
O		7.47918080		3.78203323		2.09572736		 0.00013455		 0.00021012		 0.00021171
