# total energy = -24714.7722087 eV	

CRYSTAL	
PRIMVEC	
		9.53870002		0.00000000		0.00000000	
		0.00000000		8.66009990		0.00000000	
		-1.68714803		0.00000000		5.35800227	
PRIMCOORD
   40 1	
Mg		-0.42178796		7.83046288		1.33950057		 0.00000010		-0.00024552		-0.00000022	
Mg		-1.26536388		0.82963702		4.01850361		-0.00000010		 0.00024552		 0.00000022	
Mg		4.34756205		3.50041293		1.33950057		 0.00000009		-0.00025797		-0.00000023	
Mg		3.50398613		5.15968697		4.01850361		-0.00000009		 0.00025797		 0.00000023	
Mg		-0.42178796		2.47332482		1.33950057		-0.00000022		-0.00022841		-0.00000044	
Mg		-1.26536388		6.18677508		4.01850361		 0.00000022		 0.00022841		 0.00000044	
Mg		4.34756205		6.80337477		1.33950057		-0.00000016		-0.00021743		-0.00000048	
Mg		3.50398613		1.85672513		4.01850361		 0.00000016		 0.00021743		 0.00000048	
Si		2.37296148		0.79655585		1.31646174		-0.00011473		 0.00019023		-0.00025348	
Si		5.47858670		7.86354405		4.04154434		 0.00011473		-0.00019023		 0.00025348	
Si		6.32216262		0.79655585		1.36254130		 0.00010963		 0.00019595		 0.00024915	
Si		1.52938461		7.86354405		3.99546479		-0.00010963		-0.00019595		-0.00024915	
Si		7.14231149		5.12660581		1.31646174		-0.00002539		 0.00026804		-0.00020076	
Si		0.70923669		3.53349410		4.04154434		 0.00002539		-0.00026804		 0.00020076	
Si		1.55281261		5.12660581		1.36254130		 0.00002112		 0.00027307		 0.00019704	
Si		6.29873462		3.53349410		3.99546479		-0.00002112		-0.00027307		-0.00019704	
O		0.84504584		0.71705556		0.73940473		-0.00039501		-0.00025308		-0.00008630	
O		7.00650234		7.94304339		4.61860135		 0.00039501		 0.00025308		 0.00008630	
O		7.85007827		0.71705556		1.93959831		 0.00039844		-0.00025324		 0.00008800	
O		0.00146991		7.94304339		3.41840777		-0.00039844		 0.00025324		-0.00008800	
O		5.61439585		5.04710742		0.73940473		-0.00044749		-0.00025472		-0.00010245	
O		2.23715233		3.61299439		4.61860135		 0.00044749		 0.00025472		 0.00010245	
O		3.08072825		5.04710742		1.93959831		 0.00045023		-0.00025499		 0.00010393	
O		4.77081993		3.61299439		3.41840777		-0.00045023		 0.00025499		-0.00010393	
O		2.93192644		2.23170764		1.70331040		 0.00005383		 0.00016495		 0.00026207	
O		4.91962174		6.42839321		3.65469568		-0.00005383		-0.00016495		-0.00026207	
O		5.76319766		2.23170764		0.97569264		-0.00005137		 0.00015979		-0.00026053	
O		2.08834861		6.42839321		4.38231344		 0.00005137		-0.00015979		 0.00026053	
O		7.70127645		6.56175664		1.70331040		 0.00001534		 0.00009056		 0.00023864	
O		0.15027173		2.09834231		3.65469568		-0.00001534		-0.00009056		-0.00023864	
O		0.99384765		6.56175664		0.97569264		-0.00001329		 0.00008623		-0.00023726	
O		6.85769958		2.09834231		4.38231344		 0.00001329		-0.00008623		 0.00023726	
O		3.33603347		0.05629073		0.13823675		-0.00001079		-0.00016677		 0.00006560	
O		4.51551471		8.60380917		5.21976933		 0.00001079		 0.00016677		-0.00006560	
O		5.35909063		0.05629073		2.54076629		 0.00001020		-0.00016736		-0.00006511	
O		2.49245659		8.60380917		2.81723884		-0.00001020		 0.00016736		 0.00006511	
O		8.10538348		4.38634068		0.13823675		-0.00001888		-0.00017033		 0.00005472	
O		-0.25383530		4.27375922		5.21976933		 0.00001888		 0.00017033		-0.00005472	
O		0.58974062		4.38634068		2.54076629		 0.00001836		-0.00017099		-0.00005420	
O		7.26180660		4.27375922		2.81723884		-0.00001836		 0.00017099		 0.00005420	
