# total energy = -24715.4904716 eV	

CRYSTAL	
PRIMVEC	
		9.53870002		0.00000000		0.00000000	
		0.00000000		8.66009990		0.00000000	
		-1.68714803		0.00000000		5.23339823	
PRIMCOORD
   40 1	
Mg		-0.42178796		7.83046288		1.30835003		-0.00000004		-0.00039401		 0.00000003	
Mg		-1.26536388		0.82963702		3.92505106		 0.00000004		 0.00039401		-0.00000003	
Mg		4.34756205		3.50041293		1.30835003		-0.00000005		-0.00041228		 0.00000004	
Mg		3.50398613		5.15968697		3.92505106		 0.00000005		 0.00041228		-0.00000004	
Mg		-0.42178796		2.47332482		1.30835003		 0.00000001		 0.00058367		 0.00000002	
Mg		-1.26536388		6.18677508		3.92505106		-0.00000001		-0.00058367		-0.00000002	
Mg		4.34756205		6.80337477		1.30835003		 0.00000001		 0.00060345		 0.00000005	
Mg		3.50398613		1.85672513		3.92505106		-0.00000001		-0.00060345		-0.00000005	
Si		2.37296148		0.79655585		1.28584729		 0.00040556		 0.00005529		-0.00028124	
Si		5.47858670		7.86354405		3.94755380		-0.00040556		-0.00005529		 0.00028124	
Si		6.32216262		0.79655585		1.33085374		-0.00040519		 0.00005486		 0.00028157	
Si		1.52938461		7.86354405		3.90254736		 0.00040519		-0.00005486		-0.00028157	
Si		7.14231149		5.12660581		1.28584729		 0.00056198		 0.00018007		-0.00019733	
Si		0.70923669		3.53349410		3.94755380		-0.00056198		-0.00018007		 0.00019733	
Si		1.55281261		5.12660581		1.33085374		-0.00056197		 0.00018002		 0.00019740	
Si		6.29873462		3.53349410		3.90254736		 0.00056197		-0.00018002		-0.00019740	
O		0.84504584		0.71705556		0.72220932		-0.00035104		 0.00017774		-0.00018937	
O		7.00650234		7.94304339		4.51119082		 0.00035104		-0.00017774		 0.00018937	
O		7.85007827		0.71705556		1.89449075		 0.00035080		 0.00017779		 0.00018925	
O		0.00146991		7.94304339		3.33891034		-0.00035080		-0.00017779		-0.00018925	
O		5.61439585		5.04710742		0.72220932		-0.00043899		 0.00017648		-0.00022039	
O		2.23715233		3.61299439		4.51119082		 0.00043899		-0.00017648		 0.00022039	
O		3.08072825		5.04710742		1.89449075		 0.00043901		 0.00017652		 0.00022035	
O		4.77081993		3.61299439		3.33891034		-0.00043901		-0.00017652		-0.00022035	
O		2.93192644		2.23170764		1.66369809		-0.00002869		-0.00014478		 0.00024702	
O		4.91962174		6.42839321		3.56970300		 0.00002869		 0.00014478		-0.00024702	
O		5.76319766		2.23170764		0.95300198		 0.00002855		-0.00014445		-0.00024716	
O		2.08834861		6.42839321		4.28039911		-0.00002855		 0.00014445		 0.00024716	
O		7.70127645		6.56175664		1.66369809		-0.00009980		-0.00026913		 0.00020742	
O		0.15027173		2.09834231		3.56970300		 0.00009980		 0.00026913		-0.00020742	
O		0.99384765		6.56175664		0.95300198		 0.00009980		-0.00026914		-0.00020744	
O		6.85769958		2.09834231		4.28039911		-0.00009980		 0.00026914		 0.00020744	
O		3.33603347		0.05629073		0.13502221		-0.00002518		-0.00091797		 0.00050216	
O		4.51551471		8.60380917		5.09837888		 0.00002518		 0.00091797		-0.00050216	
O		5.35909063		0.05629073		2.48167882		 0.00002519		-0.00091794		-0.00050214	
O		2.49245659		8.60380917		2.75172227		-0.00002519		 0.00091794		 0.00050214	
O		8.10538348		4.38634068		0.13502221		-0.00003856		-0.00092282		 0.00048499	
O		-0.25383530		4.27375922		5.09837888		 0.00003856		 0.00092282		-0.00048499	
O		0.58974062		4.38634068		2.48167882		 0.00003851		-0.00092280		-0.00048498	
O		7.26180660		4.27375922		2.75172227		-0.00003851		 0.00092280		 0.00048498	
