# total energy = -24715.2222852 eV

CRYSTAL
PRIMVEC
		9.03900020		0.36155965		0.00000000
		0.34780033		8.69499929		0.00000000
		0.00000000		0.00000000		5.08900087
PRIMECORD
   40 1
O		1.12376860		0.79499700		0.29974225		 0.00036989		-0.00055233		-0.00071995
O		1.41146941		7.98750012		2.84424178		-0.00005933		 0.00064503		-0.00022124
O		5.81716886		5.32327647		2.24475819		 0.00036989		-0.00055233		 0.00071995
O		5.75706934		3.82078120		4.78925772		-0.00005933		 0.00064503		 0.00022124
O		3.49235789		2.27524217		0.53739842		 0.00025487		 0.00029872		-0.00048453
O		3.66903977		6.69230188		3.08189886		 0.00026096		 0.00017498		-0.00007617
O		8.18575725		6.80352164		2.00710202		 0.00025487		 0.00029872		 0.00048453
O		8.01463971		2.52558206		4.55160155		 0.00026096		 0.00017498		 0.00007617
O		3.56835525		8.48439043		1.40456442		-0.00002742		-0.00059490		-0.00053733
O		3.24775331		0.46934093		3.94906395		-0.00055390		-0.00010214		-0.00006713
O		7.91395519		4.31767152		1.13993601		-0.00002742		-0.00059490		 0.00053733
O		7.94115267		4.99761949		3.68443555		-0.00055390		-0.00010214		 0.00006713
O		8.25590261		8.21873980		4.45338393		 0.00023422		 0.00022183		-0.00029660
O		7.97161223		1.11144763		1.90888440		 0.00008080		-0.00006509		-0.00066744
O		3.56250415		3.69046124		3.18011556		 0.00023422		 0.00022183		 0.00029660
O		3.62601229		5.27816745		0.63561603		 0.00008080		-0.00006509		 0.00066744
O		5.88126682		6.83548106		4.87882533		 0.00061960		-0.00025814		 0.00015790
O		5.70020204		2.30886519		2.33432399		-0.00041588		-0.00017098		 0.00021212
O		1.18786655		2.30720159		2.75467598		 0.00061960		-0.00025814		-0.00015790
O		1.35460210		6.47558501		0.21017645		-0.00041588		-0.00017098		-0.00021212
O		6.17381008		8.50874288		2.86103610		 0.00010156		 0.00037420		-0.00017938
O		5.85960834		0.65368135		0.31653566		-0.00084142		-0.00017529		-0.00026390
O		1.48041071		3.98046251		4.77246430		 0.00010156		 0.00037420		 0.00017938
O		1.51400840		4.82040117		2.22796387		-0.00084142		-0.00017529		 0.00026390
Si		2.71272138		0.87852083		0.34808800		 0.00017729		 0.00031193		-0.00000102
Si		2.99882101		8.03102785		2.89258753		-0.00053012		-0.00023948		-0.00030190
Si		7.40612075		5.40680120		2.19641334		 0.00017729		 0.00031193		 0.00000102
Si		7.34442095		3.86430803		4.74091196		-0.00053012		-0.00023948		 0.00030190
Si		6.66111048		8.16970563		4.38671776		 0.00035326		-0.00007621		-0.00028028
Si		6.37563685		1.03285129		1.84221823		 0.00044118		 0.00010098		-0.00056119
Si		1.96771112		3.64142706		3.24678174		 0.00035326		-0.00007621		 0.00028028
Si		2.03003692		5.19957111		0.70228221		 0.00044118		 0.00010098		 0.00056119
Mg		9.04982583		1.19624607		3.64372390		-0.00033825		-0.00043330		-0.00066760
Mg		9.33077815		8.22006688		1.09922437		 0.00034585		 0.00014952		 0.00070301
Mg		4.70422589		5.36296499		3.98977560		-0.00033825		-0.00043330		 0.00066760
Mg		4.63737879		3.69178561		1.44527607		 0.00034585		 0.00014952		-0.00070301
Mg		0.14560085		2.28634551		1.09464426		 0.00002853		 0.00027842		 0.00001617
Mg		0.31066738		6.41299325		3.63914380		-0.00050168		 0.00011226		-0.00003655
Mg		4.83900112		6.81462498		1.44985617		 0.00002853		 0.00027842		-0.00001617
Mg		4.65626731		2.24627253		3.99435570		-0.00050168		 0.00011226		 0.00003655
