# total energy = -18492.2825294 eV	

CRYSTAL	
PRIMVEC	
		7.02599999		0.00000000		0.00000000	
		0.00000000		6.22800096		0.99647650	
		-0.43440353		0.67836732		4.23980456	
PRIMCOORD
   30 1	
Mg		0.16677405		1.92196230		2.53013496		 0.00004106		-0.00048176		 0.00025321	
Mg		6.42482381		4.98440599		2.70615031		-0.00004106		 0.00048176		-0.00025321	
Mg		4.73063390		2.17906401		4.13701980		 0.00013843		 0.00058851		 0.00059815	
Mg		1.86096467		4.72730498		1.09926407		-0.00013843		-0.00058851		-0.00059815	
Mg		2.80620688		1.58549208		0.42719204		-0.00005101		-0.00021254		-0.00062282	
Mg		3.78539099		5.32087691		4.80909183		 0.00005101		 0.00021254		 0.00062282	
Si		0.00000000		0.00000000		0.00000000		0.00000000		0.00000000		0.00000000	
Si		0.00000000		3.11399978		0.49823966		0.00000000		0.00000000		0.00000000	
Si		2.07748702		3.50295071		2.85332394		-0.00010903		 0.00012314		-0.00063447	
Si		4.51411084		3.40341828		2.38295994		 0.00010903		-0.00012314		 0.00063447	
Si		4.51411084		0.31432989		1.88870613		-0.00043228		 0.00022288		 0.00026881	
Si		2.07748702		6.59203910		3.34757774		 0.00043228		-0.00022288		-0.00026881	
O		5.50377634		3.58265224		1.15160074		 0.00006084		-0.00068385		-0.00008163	
O		1.08782223		3.32371674		4.08468313		-0.00006084		 0.00068385		 0.00008163	
O		1.08782223		0.95707680		3.70601967		 0.00045969		 0.00002845		-0.00059016	
O		5.50377634		5.94929219		1.53026420		-0.00045969		-0.00002845		 0.00059016	
O		5.86321666		3.19087967		3.21651895		 0.00057879		-0.00051138		 0.00037352	
O		0.72838120		3.71548931		2.01976492		-0.00057879		 0.00051138		-0.00037352	
O		0.72838120		6.09458495		2.40042025		 0.00046277		 0.00001554		-0.00013646	
O		5.86321666		0.81178334		2.83586433		-0.00046277		-0.00001554		 0.00013646	
O		1.96359767		1.84801997		2.06799630		 0.00026670		-0.00022232		-0.00006870	
O		4.62800090		5.05834902		3.16828827		-0.00026670		 0.00022232		 0.00006870	
O		3.11234796		3.62138377		1.58331893		-0.00018453		 0.00042316		 0.00024788	
O		3.47924990		3.28498522		3.65296494		 0.00018453		-0.00042316		-0.00024788	
O		3.47924990		0.85606470		3.26433791		 0.00037082		 0.00022826		 0.00006746	
O		3.11234796		6.05030429		1.97194596		-0.00037082		-0.00022826		-0.00006746	
O		4.38877614		1.76932877		1.57617911		-0.00083703		-0.00025009		-0.00049671	
O		2.20282173		5.13703881		3.66010617		 0.00083703		 0.00025009		 0.00049671	
O		6.82103681		1.63569074		0.74093666		 0.00022011		 0.00033659		-0.00000764	
O		-0.22943895		5.27067825		4.49534721		-0.00022011		-0.00033659		 0.00000764	
