# total energy = -2552.84021929 eV

CRYSTAL
PRIMVEC
		3.06344967		0.00000000		0.00000000
		-1.53172484		2.72105097		0.00000000
		0.00000000		0.00000000		4.76599859
PRIMECORD
   5 1
Mg		0.00000000		0.00000000		0.00000000		0.00000000		0.00000000		0.00000000
O		0.00000000		1.81403490		1.05614603		0.00000000		-0.00006326		-0.00032090
O		1.53172484		0.90701699		3.70985349		0.00000000		 0.00006326		 0.00032090
H		0.00000000		1.81403490		2.05080984		0.00000000		 0.00016283		 0.00043975
H		1.53172484		0.90701699		2.71518967		0.00000000		-0.00016283		-0.00043975
