# total energy = -2552.72156245 eV

CRYSTAL
PRIMVEC
		3.45619970		0.00000000		0.00000000
		-1.72809985		2.72105220		0.00000000
		0.00000000		0.00000000		4.76599916
PRIMECORD
   5 1
Mg		0.00000000		0.00000000		0.00000000		0.00000000		0.00000000		0.00000000
O		0.00000000		1.81403480		1.05614585		0.00000000		 0.00024490		 0.00016217
O		1.72809985		0.90701705		3.70985365		0.00000000		-0.00024490		-0.00016217
H		0.00000000		1.81403480		2.05080971		0.00000000		-0.00072430		 0.00013781
H		1.72809985		0.90701705		2.71518979		0.00000000		 0.00072430		-0.00013781
