# total energy = -2552.5810143 eV

CRYSTAL
PRIMVEC
		2.82780019		0.00000000		0.00000000
		-1.41390009		2.72105356		0.00000000
		0.00000000		0.00000000		4.76599989
PRIMECORD
   5 1
Mg		0.00000000		0.00000000		0.00000000		0.00000000		-0.00000000		0.00000000
O		0.00000000		1.81403523		1.05614604		0.00000000		-0.00008452		-0.00053702
O		1.41390009		0.90701719		3.70985413		0.00000000		 0.00008452		 0.00053702
H		0.00000000		1.81403523		2.05081005		0.00000000		 0.00059070		-0.00052259
H		1.41390009		0.90701719		2.71519011		0.00000000		-0.00059070		 0.00052259
