# total energy = -2552.79001111 eV

CRYSTAL
PRIMVEC
		2.98490020		0.00000000		0.00000000
		-1.49245010		2.72105293		0.00000000
		0.00000000		0.00000000		4.76599910
PRIMECORD
   5 1
Mg		0.00000000		0.00000000		0.00000000		0.00000000		0.00000000		0.00000000
O		0.00000000		1.81403519		1.05614604		0.00000000		 0.00012521		-0.00054248
O		1.49245010		0.90701715		3.70985425		0.00000000		-0.00012521		 0.00054248
H		0.00000000		1.81403519		2.05081001		0.00000000		 0.00022106		 0.00036485
H		1.49245010		0.90701715		2.71519029		0.00000000		-0.00022106		-0.00036485
