# total energy = -2552.70545316 eV

CRYSTAL
PRIMVEC
		2.90635019		0.00000000		0.00000000
		-1.45317510		2.72105293		0.00000000
		0.00000000		0.00000000		4.76600161
PRIMECORD
   5 1
Mg		0.00000000		0.00000000		0.00000000		0.00000000		0.00000000		0.00000000
O		0.00000000		1.81403509		1.05614615		0.00000000		 0.00009939		-0.00044429
O		1.45317510		0.90701697		3.70985430		0.00000000		-0.00009939		 0.00044429
H		0.00000000		1.81403509		2.05081021		0.00000000		 0.00034796		-0.00018069
H		1.45317510		0.90701697		2.71519024		0.00000000		-0.00034796		 0.00018069
