# total energy = -2552.7837929 eV

CRYSTAL
PRIMVEC
		3.37764970		0.00000000		0.00000000
		-1.68882485		2.72105148		0.00000000
		0.00000000		0.00000000		4.76599883
PRIMECORD
   5 1
Mg		0.00000000		0.00000000		0.00000000		0.00000000		0.00000000		0.00000000
O		0.00000000		1.81403500		1.05614580		0.00000000		 0.00024753		 0.00016068
O		1.68882485		0.90701682		3.70985370		0.00000000		-0.00024753		-0.00016068
H		0.00000000		1.81403500		2.05080993		0.00000000		-0.00056515		 0.00008390
H		1.68882485		0.90701682		2.71518991		0.00000000		 0.00056515		-0.00008390
