# total energy = -92470.8860367 eV

CRYSTAL
PRIMVEC
		24.64939928		0.00005550		0.00123950
		-0.00038850		22.15099285		-0.00001850
		0.00040700		-0.00003700		5.58794334
PRIMECORD
   164 1
Mg		4.26038522		4.25263558		2.44026833		 0.00008504		 0.00017003		-0.00020589
Mg		20.38891230		17.89871247		3.14856671		-0.00008148		-0.00023689		 0.00016073
Mg		8.05854796		17.89801872		5.23757000		 0.00007950		-0.00025449		-0.00017637
Mg		16.59125091		4.25222303		0.35123729		-0.00007461		 0.00022909		 0.00020145
Mg		20.38866995		15.32777310		3.14864441		-0.00006452		 0.00019268		 0.00017806
Mg		4.26017617		6.82287195		2.44033123		 0.00007764		-0.00018791		-0.00020771
Mg		16.59071256		6.82247050		0.35207349		-0.00006745		-0.00018533		 0.00021703
Mg		8.05789676		15.32772500		5.23816940		 0.00009610		 0.00017258		-0.00013022
Mg		4.21923568		2.64209407		5.13949780		-0.00021082		-0.00017586		-0.00017611
Mg		20.43533620		19.51083018		0.45202159		 0.00017997		 0.00015808		 0.00021039
Mg		8.10353071		19.50749833		2.34839178		 0.00014739		 0.00067912		-0.00036515
Mg		16.54348946		2.64390152		3.24103340		-0.00024116		-0.00067120		 0.00038257
Mg		20.43522335		13.71577010		0.45230094		 0.00018455		-0.00012181		 0.00020727
Mg		4.21879538		8.43317480		5.13973090		-0.00016737		 0.00012130		-0.00017463
Mg		16.54514336		8.43236265		3.24122580		-0.00020591		 0.00062151		 0.00038800
Mg		8.10459816		13.72011205		2.34851943		 0.00021641		-0.00066995		-0.00041588
Mg		4.42121867		22.97218933		2.07119889		 0.00043549		 0.00000793		-0.00016786
Mg		20.22224581		-0.82609528		3.52225375		-0.00035399		 0.00017127		 0.00009411
Mg		7.90220077		-0.82003098		4.86693916		-0.00034355		 0.00000593		-0.00034010
Mg		16.75035646		22.97367858		0.72322788		 0.00031153		 0.00006347		 0.00036376
Mg		20.22286001		11.90015055		3.52239620		-0.00037401		-0.00008996		 0.00008278
Mg		4.42205117		10.25309005		2.07133394		 0.00046872		 0.00005593		-0.00014715
Mg		16.74840286		10.25518610		0.72273023		 0.00030198		-0.00006822		 0.00034296
Mg		7.89951827		11.89763270		4.86657471		-0.00037257		 0.00007865		-0.00033299
Mg		4.21484193		5.53728294		5.21755485		-0.00017407		-0.00006906		-0.00088699
Mg		20.44277505		16.61296806		0.37554259		 0.00013589		 0.00000363		 0.00085688
Mg		8.10569521		16.61420571		2.42598633		 0.00011166		-0.00001935		-0.00112532
Mg		16.54237761		5.53860014		3.16457106		-0.00010392		 0.00002732		 0.00114782
Si		-1.50706731		18.17143392		1.52287371		-0.00040510		 0.00032037		 0.00007462
Si		26.16102128		3.98030818		4.07110988		 0.00032691		-0.00082298		-0.00010799
Si		13.83880619		3.98146998		4.31421467		-0.00031060		-0.00050282		 0.00006067
Si		10.80910198		18.17193157		1.27606891		 0.00021857		-0.00004880		-0.00007149
Si		26.16088808		7.09526594		4.07118943		-0.00023921		 0.00000689		-0.00013769
Si		-1.50745951		15.05487406		1.52277566		 0.00020175		-0.00028248		 0.00015635
Si		10.81035443		15.05687576		1.27584136		-0.00039072		-0.00016033		-0.00002586
Si		13.83977559		7.09677369		4.31399637		 0.00007317		-0.00014665		 0.00010034
Si		-1.45593886		19.70660272		4.33574497		-0.00009417		-0.00005531		 0.00005094
Si		26.10944698		2.44681918		1.25869001		-0.00006555		-0.00014244		-0.00008173
Si		13.78584810		2.44654353		1.53929430		 0.00009989		-0.00014271		 0.00005169
Si		10.86173078		19.70597742		4.05124273		 0.00017323		 0.00036091		-0.00004628
Si		26.10890123		8.62834055		1.25891016		 0.00003206		 0.00004995		-0.00011836
Si		-1.45620526		13.51962755		4.33565062		-0.00004293		-0.00007876		 0.00012250
Si		10.86251703		13.52283730		4.05082648		 0.00013169		-0.00005482		-0.00001639
Si		13.78716530		8.63149665		1.53880035		 0.00014357		 0.00030306		 0.00010662
Si		5.34108674		19.88664657		0.82923843		-0.00013786		 0.00031824		-0.00004944
Si		19.30853638		2.26356373		4.75879556		-0.00009514		 0.00022472		 0.00011121
Si		6.98335020		2.26342128		3.62191694		 0.00004949		-0.00006967		-0.00001539
Si		17.66633583		19.88722007		1.96561939		-0.00013316		 0.00023117		 0.00000435
Si		19.30847533		8.81095589		4.75967616		-0.00008581		-0.00005306		 0.00009279
Si		5.34069269		13.33911936		0.83007278		 0.00010308		 0.00001777		-0.00009358
Si		17.66699258		13.34022381		1.96632609		-0.00009687		-0.00014093		 0.00003221
Si		6.98368690		8.81285399		3.62265324		 0.00017825		 0.00013343		-0.00000884
Si		5.39203944		18.24040191		3.60403299		-0.00018896		 0.00013310		-0.00012650
Si		19.25739313		3.90823219		1.98374199		-0.00008966		-0.00014008		 0.00014362
Si		6.92977790		3.91042444		0.80818728		-0.00027303		-0.00020840		-0.00002631
Si		17.72333248		18.24342481		4.77916961		-0.00017820		 0.00007211		 0.00003270
Si		19.25686403		7.16527549		1.98476134		-0.00001034		-0.00006761		 0.00013381
Si		5.39129944		14.98425216		3.60500054		-0.00003911		 0.00002680		-0.00013939
Si		17.72366918		14.98413006		4.77988186		-0.00022063		-0.00004921		 0.00003674
Si		6.92967060		7.16626894		0.80890138		 0.00037595		-0.00008754		-0.00001299
O		3.09259681		2.04539324		1.16738142		-0.00047409		-0.00046138		 0.00013872
O		21.56220077		20.11261111		4.42639867		 0.00057479		 0.00038428		-0.00013610
O		9.23005673		20.10798056		3.96121433		 0.00004053		 0.00038354		 0.00003102
O		15.41679695		2.04011149		1.62897675		-0.00009509		-0.00038635		-0.00004299
O		21.56184742		13.11391702		4.42675387		 0.00061115		-0.00039103		-0.00016755
O		3.09209731		9.02997369		1.16778287		-0.00055694		 0.00044297		 0.00013573
O		15.41915200		9.03386608		1.62886205		-0.00027630		 0.00038702		-0.00006853
O		9.23155153		13.11763552		3.96121248		 0.00008763		-0.00041431		 0.00003174
O		3.13739086		3.86859779		4.12885578		-0.00033359		 0.00050352		-0.00019207
O		21.51593412		18.28327011		1.46336846		 0.00039095		-0.00050762		 0.00022524
O		9.18336643		18.28110191		1.33631231		 0.00047618		-0.00058941		-0.00007172
O		15.46459170		3.87028129		4.25406933		-0.00028558		 0.00060338		 0.00003920
O		21.51606177		14.94382966		1.46320196		-0.00013405		 0.00040356		 0.00019631
O		3.13690061		7.20701334		4.12864858		 0.00003314		-0.00037227		-0.00016726
O		15.46598660		7.20551114		4.25383438		-0.00077171		-0.00054707		-0.00000056
O		9.18426738		14.94581101		1.33570736		 0.00084560		 0.00057373		-0.00005275
O		-0.99170542		16.61311791		1.52516216		-0.00104183		-0.00002802		-0.00025856
O		25.64357260		5.53733844		4.06998508		 0.00103699		 0.00069193		 0.00027579
O		13.32185886		5.53910704		4.31538572		 0.00105227		 0.00043868		-0.00011835
O		11.32747382		16.61451466		1.27459631		-0.00101565		 0.00027159		 0.00010874
O		3.28006655		5.53799704		1.33704861		 0.00008376		 0.00002706		-0.00056883
O		21.36651147		16.61334731		4.25280393		-0.00001376		 0.00002408		 0.00058402
O		9.03827278		16.61199866		4.13352888		-0.00005585		 0.00007915		-0.00018493
O		15.61193679		5.53669464		1.45651791		 0.00003551		-0.00002638		 0.00016490
O		-0.58399503		-1.04718692		4.22360168		-0.00103365		 0.00030080		 0.00005995
O		25.23944381		1.05011547		1.38105086		 0.00127459		-0.00040756		-0.00031340
O		12.91468497		1.04922562		1.42450181		 0.00114361		-0.00055592		 0.00029918
O		11.73241661		-1.04823217		4.17276553		-0.00126378		 0.00030734		-0.00035785
O		25.23876301		10.02502946		1.38022946		 0.00133235		 0.00062579		-0.00040204
O		-0.58467213		12.12237624		4.22268038		-0.00112487		-0.00014513		 0.00004532
O		11.73313996		12.12490704		4.16597973		-0.00118553		-0.00029781		-0.00024498
O		12.91724722		10.02837611		1.41807861		 0.00120144		 0.00023650		 0.00026935
O		-0.99437312		18.93906919		0.14340645		 0.00014540		-0.00000595		-0.00000502
O		25.64690260		3.20927076		5.44844779		-0.00013512		 0.00002246		-0.00014422
O		13.32430271		3.21286716		2.93542821		 0.00004902		 0.00012024		 0.00036273
O		11.32417527		18.94252314		2.65348267		-0.00000539		-0.00009935		-0.00032768
O		25.64663620		7.86550232		5.44876044		-0.00014849		 0.00000977		-0.00010554
O		-0.99453037		14.28693538		0.14345640		 0.00012718		 0.00003864		 0.00008136
O		11.32502812		14.28862443		2.65451867		-0.00001088		-0.00007905		-0.00012857
O		13.32554221		7.86734492		2.93641981		-0.00004111		-0.00007173		 0.00029227
O		-1.06951272		18.91301380		2.94002176		-0.00025850		 0.00005060		 0.00040878
O		25.72217725		3.23846745		2.65462967		 0.00024581		 0.00006061		-0.00026735
O		13.40076136		3.23953120		0.14347305		 0.00006859		 0.00023065		 0.00000230
O		11.24713942		18.91446049		5.44758199		-0.00006235		-0.00021015		-0.00008338
O		25.72130035		7.83665527		2.65474067		 0.00027204		-0.00003324		-0.00027089
O		-1.06984387		14.31311658		2.94000881		-0.00031249		 0.00002858		 0.00022119
O		11.24890432		14.31472793		5.44705474		-0.00004447		 0.00002769		-0.00030039
O		13.40240601		7.83916942		0.14277560		 0.00002494		-0.00017570		 0.00005124
O		5.30351694		3.72506554		0.75732153		 0.00034662		-0.00032953		-0.00013778
O		19.34835578		18.43857576		4.82766921		 0.00000715		 0.00027817		 0.00021452
O		7.01799514		18.42579966		3.55354650		-0.00020866		 0.00028839		-0.00013899
O		17.63167608		3.71874224		2.03299454		 0.00036649		-0.00019472		 0.00017218
O		19.34875168		14.78967102		4.82877551		 0.00001931		-0.00030234		 0.00022281
O		5.30399979		7.35199043		0.75834273		-0.00017899		 0.00044948		-0.00018326
O		17.63105078		7.35261018		2.03502029		 0.00038203		 0.00026237		 0.00014959
O		7.01717004		14.79723382		3.55530400		-0.00030139		-0.00026843		-0.00013342
O		5.28499474		2.02266414		3.51010665		 0.00004560		 0.00000525		 0.00012184
O		19.36474863		20.12709106		2.07914649		 0.00001410		 0.00003683		-0.00014893
O		7.03991209		20.12515596		0.71592778		-0.00043191		-0.00011260		 0.00023017
O		17.60941503		2.02647699		4.87254281		 0.00056205		 0.00008190		-0.00028752
O		19.36555153		13.10028252		2.08020284		 0.00005271		-0.00001750		-0.00013525
O		5.28553124		9.05351123		3.51109455		-0.00006190		 0.00000883		 0.00013139
O		17.60970548		9.05014978		4.87296646		 0.00054041		-0.00009217		-0.00024520
O		7.03991949		13.10260242		0.71634958		-0.00052601		 0.00006450		 0.00024419
O		4.73593141		-0.76329333		1.03656237		-0.00015741		-0.00014950		-0.00019300
O		19.91285552		0.76212413		4.55272777		 0.00036964		-0.00030207		 0.00012268
O		7.59320823		0.76426458		3.82951654		-0.00020240		 0.00004876		-0.00010799
O		17.05740465		-0.76413508		1.75789030		 0.00026975		-0.00025367		 0.00015589
O		19.91448722		10.31178500		4.55306632		 0.00031801		 0.00020100		 0.00012920
O		4.73712096		11.83750770		1.03683432		-0.00034107		-0.00010527		-0.00015400
O		17.05858495		11.84053800		1.75827140		 0.00022955		 0.00016689		 0.00015151
O		7.59413138		10.31214575		3.82980514		-0.00023300		-0.00018728		-0.00010455
O		4.98622715		16.61247411		3.65333734		 0.00048740		-0.00008295		 0.00001451
O		19.66064872		5.53669279		1.93568084		-0.00040133		 0.00014326		-0.00000194
O		7.33518133		5.53817279		6.44540536		-0.00026729		 0.00021064		 0.00004803
O		17.32525134		16.61381906		-0.85737137		 0.00015610		-0.00000350		-0.00003054
O		5.23550725		5.53808584		3.55055875		 0.00022331		 0.00000559		-0.00015911
O		19.41585488		16.61329366		2.03683329		-0.00024538		 0.00003028		 0.00023213
O		7.08167954		16.61302726		0.75988378		 0.00022432		 0.00006502		 0.00003131
O		17.56766053		5.53768254		4.82968201		-0.00025117		-0.00005547		-0.00007828
O		4.91758106		18.97911429		2.17981054		 0.00030360		-0.00025755		-0.00015389
O		19.73262112		3.17017101		3.40795150		-0.00028403		 0.00019492		 0.00028935
O		7.40521678		3.17228926		4.97197660		-0.00025986		 0.00028143		-0.00006842
O		17.24503719		18.97847234		0.61576508		 0.00027400		-0.00034389		 0.00002819
O		19.73187927		7.90349947		3.40898750		-0.00027331		-0.00014996		 0.00026929
O		4.91660611		14.24593013		2.18078549		 0.00025837		 0.00022866		-0.00022676
O		17.24558849		14.24931008		0.61658463		 0.00029679		 0.00029347		 0.00005966
O		7.40572923		7.90441337		4.97286275		-0.00029480		-0.00027797		-0.00007676
O		4.91015146		19.10026154		4.97966705		 0.00066483		-0.00017488		-0.00009436
O		19.74092947		3.04988031		0.60785818		-0.00067656		 0.00010188		 0.00000639
O		7.41118858		3.05075166		2.18396564		-0.00040526		 0.00008550		-0.00011322
O		17.23733749		19.10002289		3.40305455		 0.00041344		-0.00009109		 0.00015564
O		19.73949017		8.02427856		0.60898113		-0.00063620		-0.00008577		 0.00001959
O		4.90864186		14.12514919		4.98072155		 0.00064480		 0.00013243		-0.00004212
O		17.23801089		14.12746539		3.40379270		 0.00044425		 0.00005561		 0.00014104
O		7.41181018		8.02563091		2.18473154		-0.00044652		-0.00008249		-0.00010137
H		25.50647835		0.32362049		0.80494423		-0.00020573		 0.00038890		 0.00025809
H		-0.91037572		-0.29748184		4.73498421		 0.00013586		-0.00018215		-0.00008087
H		11.45975436		-0.31933404		3.60231249		 0.00021640		-0.00051384		 0.00032896
H		13.23192851		0.30288014		1.94692329		-0.00027742		 0.00054490		-0.00026855
H		-0.90709012		11.37456372		4.73932986		 0.00013753		 0.00012446		-0.00005400
H		25.51077405		10.75311913		0.80835193		-0.00029235		-0.00049872		 0.00035844
H		13.19611991		10.75985868		1.98202334		-0.00021797		-0.00043707		-0.00025055
H		11.42298746		11.38331237		3.63272279		 0.00019409		 0.00035191		 0.00022612
