# total energy = -92494.9532185 eV

CRYSTAL
PRIMVEC
		18.20139097		-0.00001850		0.00014800
		-0.00001850		17.65660298		0.00000000
		0.00003700		0.00000000		5.20306935
PRIMECORD
   164 1
Mg		2.34607928		3.10261826		2.04578914		-0.00051954		-0.00011623		 0.00025584
Mg		15.85533573		14.55396067		3.15742081		 0.00051178		 0.00012553		-0.00025526
Mg		6.75605550		14.55428257		4.64776226		 0.00044913		 0.00003436		 0.00026209
Mg		11.44535951		3.10229821		0.55544583		-0.00045350		-0.00002884		-0.00026265
Mg		15.85533943		11.93090125		3.15742081		 0.00051049		-0.00010926		-0.00025589
Mg		2.34607743		5.72568323		2.04578914		-0.00051789		 0.00010017		 0.00025601
Mg		11.44535581		5.72598478		0.55544768		-0.00045082		 0.00001815		-0.00026231
Mg		6.75605920		11.93059970		4.64776226		 0.00044716		-0.00002310		 0.00026236
Mg		2.43135873		1.43845266		4.64835981		 0.00023663		-0.00028867		-0.00014300
Mg		15.77005259		16.21812997		0.55485198		-0.00023627		 0.00028163		 0.00014555
Mg		6.66904445		16.21771927		2.04741529		-0.00014927		 0.00034210		-0.00013621
Mg		11.53236501		1.43886521		3.15579281		 0.00015442		-0.00035207		 0.00013426
Mg		15.77005814		10.26673565		0.55485013		-0.00023674		-0.00027410		 0.00014520
Mg		2.43135318		7.38984513		4.64835981		 0.00023742		 0.00028144		-0.00014260
Mg		11.53235761		7.38941778		3.15579281		 0.00015497		 0.00033993		 0.00013425
Mg		6.66905185		10.26716115		2.04741529		-0.00014909		-0.00032953		-0.00013637
Mg		2.43261858		17.54523484		1.94578554		-0.00049497		 0.00011137		-0.00012242
Mg		15.76879644		0.11135150		3.25742070		 0.00049100		-0.00011827		 0.00012960
Mg		6.66763845		0.11175295		4.54773092		 0.00041474		-0.00018039		-0.00011870
Mg		11.53377471		17.54483154		0.65548273		-0.00041341		 0.00017348		 0.00011247
Mg		15.76878904		8.71691854		3.25742070		 0.00049228		 0.00011754		 0.00012571
Mg		2.43262598		8.93966039		1.94578554		-0.00049652		-0.00011018		-0.00011896
Mg		11.53378396		8.94004519		0.65548458		-0.00041788		-0.00017803		 0.00010988
Mg		6.66762920		8.71653374		4.54772907		 0.00041936		 0.00018560		-0.00011563
Mg		2.31779093		4.41415167		4.65699746		 0.00005156		-0.00001062		-0.00056517
Mg		15.88362593		13.24242911		0.54620878		-0.00005875		 0.00001039		 0.00056843
Mg		6.78462505		13.24244021		2.05560894		-0.00002509		 0.00000410		-0.00054997
Mg		11.41678996		4.41414057		3.14760471		 0.00002080		-0.00000394		 0.00054750
Si		0.39910789		14.68333487		1.49354011		-0.00015054		 0.00023149		 0.00011672
Si		17.80235523		2.97323666		3.70966984		-0.00002439		-0.00019132		-0.00011439
Si		8.70081429		2.97315341		4.09416828		 0.00015072		-0.00023437		 0.00009658
Si		9.50062847		14.68342182		1.10904167		-0.00025106		 0.00026397		-0.00010105
Si		17.80237373		5.85506853		3.70966244		-0.00009317		 0.00006727		-0.00008671
Si		0.39909309		11.80152705		1.49354751		-0.00008801		-0.00011850		 0.00009136
Si		9.50062847		11.80143640		1.10903612		-0.00024224		-0.00019300		-0.00007778
Si		8.70081429		5.85515548		4.09417568		 0.00013782		 0.00015227		 0.00007082
Si		0.40543119		16.07659018		4.11849023		-0.00012721		 0.00012047		 0.00010523
Si		17.79603933		1.57998505		1.08471602		-0.00006907		-0.00009101		-0.00009498
Si		8.69529574		1.57986850		1.51623776		 0.00002291		-0.00013504		 0.00010477
Si		9.50615442		16.07671043		3.68697774		-0.00014876		 0.00014956		-0.00012118
Si		17.79603748		7.24828499		1.08471417		-0.00008391		 0.00008301		-0.00008734
Si		0.40542934		10.40830134		4.11849208		-0.00010718		-0.00010833		 0.00009807
Si		9.50615257		10.40816629		3.68697404		-0.00012578		-0.00013870		-0.00010850
Si		8.69529389		7.24841819		1.51624146		 0.00000821		 0.00012882		 0.00009160
Si		4.11196713		16.21914747		0.27399609		 0.00004898		-0.00043694		-0.00021094
Si		14.08939424		1.43747586		4.92921941		 0.00012982		 0.00029946		 0.00018582
Si		4.98876720		1.43707441		2.87492952		-0.00006594		 0.00011973		-0.00008425
Si		13.21258861		16.21954152		2.32827858		 0.00026286		-0.00022869		 0.00009729
Si		14.08938869		7.39082378		4.92921016		 0.00012592		-0.00038418		 0.00021586
Si		4.11197268		10.26571815		0.27400534		 0.00004873		 0.00051707		-0.00023969
Si		13.21259416		10.26532040		2.32827303		 0.00025696		 0.00026512		 0.00011356
Si		4.98876350		7.39122893		2.87493507		-0.00006514		-0.00016034		-0.00010151
Si		4.07390153		14.70219007		2.92520141		-0.00004768		-0.00004826		-0.00005535
Si		14.12746724		2.95439441		2.27800853		 0.00019762		 0.00004117		 0.00004650
Si		5.02714915		2.95421866		0.32305069		 0.00002912		-0.00018269		 0.00004963
Si		13.17421221		14.70235657		4.88015926		 0.00014306		 0.00020295		-0.00004791
Si		14.12747834		5.87388673		2.27800483		 0.00015106		-0.00007282		 0.00005840
Si		4.07389228		11.78269035		2.92520511		-0.00000909		 0.00008594		-0.00006768
Si		13.17421961		11.78248870		4.88015186		 0.00012575		-0.00010071		-0.00002697
Si		5.02714360		5.87409948		0.32305809		 0.00004250		 0.00007983		 0.00002825
O		1.16564242		1.26335571		1.10695857		 0.00037769		 0.00004399		 0.00051878
O		17.03573190		16.39323802		4.09625508		-0.00023171		-0.00006802		-0.00051899
O		7.93493467		16.39302712		3.70927209		-0.00019060		-0.00007652		 0.00052169
O		10.26645445		1.26356291		1.49393416		 0.00028256		 0.00006306		-0.00052061
O		17.03574115		10.09163130		4.09625508		-0.00024638		 0.00005999		-0.00051884
O		1.16563317		7.56494023		1.10695857		 0.00038814		-0.00003733		 0.00051860
O		10.26644520		7.56471638		1.49393416		 0.00029107		-0.00005686		-0.00052113
O		7.93494392		10.09185885		3.70927024		-0.00020564		 0.00006844		 0.00052222
O		1.18707282		2.77133692		3.73961024		 0.00047736		-0.00017670		-0.00007838
O		17.01430335		14.88525126		1.46360156		-0.00033563		 0.00015830		 0.00008026
O		7.91438117		14.88552876		1.13884702		-0.00028956		 0.00012606		-0.00009451
O		10.28700980		2.77105757		4.06435738		 0.00037156		-0.00013776		 0.00009376
O		17.01431815		11.59961991		1.46359971		-0.00037355		-0.00017280		 0.00007962
O		1.18705802		6.05695532		3.73961209		 0.00051778		 0.00019197		-0.00007757
O		10.28700425		6.05722172		4.06435738		 0.00037856		 0.00014530		 0.00009385
O		7.91438672		11.59935536		1.13884887		-0.00029574		-0.00013315		-0.00009452
O		1.00033197		13.24247166		1.11239942		-0.00013442		-0.00008697		-0.00011576
O		17.20106640		4.41410912		4.09081423		 0.00018207		 0.00009657		 0.00010002
O		8.09927201		4.41412762		3.71379904		 0.00019801		 0.00005710		-0.00012467
O		10.10213005		13.24245316		1.48940351		-0.00016672		-0.00004757		 0.00013475
O		1.18900792		4.41414797		1.09635622		 0.00021154		 0.00000812		-0.00076669
O		17.01239970		13.24243466		4.10685373		-0.00018894		-0.00000788		 0.00076488
O		7.91332852		13.24244206		3.69805184		-0.00021999		-0.00000391		-0.00071500
O		10.28808280		4.41414057		1.50515811		 0.00023345		 0.00000392		 0.00071601
O		1.14600282		-0.10316710		3.64427974		-0.00003906		-0.00014634		 0.00007583
O		17.05541405		0.10314675		1.55893205		 0.00008415		 0.00015841		-0.00008337
O		7.95472227		0.10288590		1.04258042		 0.00003986		 0.00017025		 0.00011195
O		10.24671125		-0.10291920		4.16063138		-0.00004994		-0.00010851		-0.00010483
O		17.05542700		8.72515104		1.55893390		 0.00000985		-0.00025340		-0.00008895
O		1.14597877		8.93143899		3.64427604		 0.00002503		 0.00022831		 0.00008097
O		10.24667240		8.93116149		4.16063508		 0.00005743		 0.00024786		-0.00011223
O		7.95475002		8.72544334		1.04257487		-0.00007716		-0.00032114		 0.00011969
O		0.98414632		15.81925334		0.42238274		 0.00013907		-0.00009120		-0.00024353
O		17.21725944		1.83732930		4.78081981		-0.00010506		 0.00009207		 0.00026478
O		8.11594606		1.83757165		3.02279631		-0.00013340		 0.00010390		-0.00021633
O		10.08546340		15.81901284		2.18041734		 0.00015283		-0.00010535		 0.00020201
O		17.21725574		6.99093519		4.78081981		-0.00010993		-0.00008107		 0.00027553
O		0.98415002		10.66564559		0.42238459		 0.00014322		 0.00008017		-0.00025537
O		10.08546525		10.66586759		2.18041179		 0.00015984		 0.00009316		 0.00021814
O		8.11594236		6.99071134		3.02280001		-0.00014187		-0.00009169		-0.00023116
O		1.00483672		15.14667291		2.94305021		-0.00017774		-0.00035188		 0.00019521
O		17.19656720		2.50991528		2.26016898		 0.00021549		 0.00033094		-0.00022094
O		8.09530191		2.50922153		0.34050914		 0.00020868		 0.00031131		 0.00024042
O		10.10610755		15.14736666		4.86269156		-0.00018569		-0.00033359		-0.00021190
O		17.19656165		6.31835106		2.26017453		 0.00021451		-0.00031235		-0.00023978
O		1.00484042		11.33822602		2.94304466		-0.00017778		 0.00033283		 0.00021521
O		10.10610940		11.33752302		4.86270081		-0.00018169		 0.00030401		-0.00024879
O		8.09529821		6.31905406		0.34049989		 0.00020313		-0.00028242		 0.00027614
O		3.42578550		2.88879897		0.32459359		-0.00020427		 0.00039859		-0.00013066
O		14.77566097		14.76778737		4.87861636		 0.00008336		-0.00041102		 0.00012908
O		5.67527813		14.76712692		2.92684421		 0.00024663		-0.00028952		-0.00019940
O		12.52615908		2.88945757		2.27636573		-0.00034520		 0.00028202		 0.00019969
O		14.77566282		11.71708566		4.87861636		 0.00008869		 0.00039745		 0.00013057
O		3.42578365		5.93949328		0.32459359		-0.00020754		-0.00038519		-0.00013221
O		12.52614983		5.93881618		2.27636758		-0.00032223		-0.00027402		 0.00020061
O		5.67528738		11.71776276		2.92684421		 0.00022751		 0.00028087		-0.00020036
O		3.37080165		1.38025351		2.86647132		-0.00031014		-0.00055343		-0.00021976
O		14.83064481		16.27632912		2.33674048		 0.00019271		 0.00055565		 0.00021950
O		5.72990308		16.27621997		0.26551014		 0.00035534		 0.00058300		-0.00024337
O		12.47153968		1.38036266		4.93769796		-0.00046247		-0.00057896		 0.00024356
O		14.83064851		10.20854390		2.33674048		 0.00019548		-0.00056200		 0.00021964
O		3.37079610		7.44803873		2.86647132		-0.00031005		 0.00055943		-0.00021979
O		12.47153413		7.44791108		4.93769611		-0.00046147		 0.00058890		 0.00024441
O		5.72990678		10.20867155		0.26551199		 0.00035630		-0.00059330		-0.00024434
O		3.46450970		0.02647720		0.26234294		-0.00006100		 0.00002216		 0.00013947
O		14.73694047		-0.02652900		4.94086886		-0.00001467		 0.00010868		-0.00014572
O		5.63621168		-0.02695265		2.86422172		-0.00007008		 0.00010791		 0.00015689
O		12.56523848		0.02690640		2.33898638		-0.00000140		 0.00001117		-0.00015134
O		14.73692567		8.85478979		4.94086886		 0.00000660		-0.00006587		-0.00014451
O		3.46450785		8.80182799		0.26234294		-0.00007988		-0.00006122		 0.00013854
O		12.56523293		8.80137289		2.33898823		-0.00000654		-0.00001830		-0.00015210
O		5.63620243		8.85523934		2.86421987		-0.00006272		-0.00009719		 0.00015756
O		3.43405130		13.24244391		2.69625097		-0.00027435		-0.00000633		 0.00004647
O		14.76736372		4.41413872		2.50696083		 0.00024630		-0.00000031		-0.00005287
O		5.66687728		4.41412577		5.29832769		 0.00029488		 0.00007175		 0.00005519
O		12.53454513		13.24245686		-0.09512145		-0.00033719		-0.00007238		-0.00004589
O		3.39403950		4.41414427		3.02024701		-0.00036434		 0.00000955		-0.00034746
O		14.80737922		13.24243836		2.18295924		 0.00035567		-0.00000951		 0.00034968
O		5.70849488		13.24244391		0.41882889		 0.00033860		-0.00000464		-0.00023613
O		12.49292198		4.41413687		4.78438291		-0.00034540		 0.00000434		 0.00023495
O		3.49551385		15.71689284		1.74886045		-0.00006844		-0.00012675		-0.00025009
O		14.70590672		1.93968424		3.45435135		 0.00003731		 0.00014586		 0.00023851
O		5.60521679		1.93978784		4.34949787		 0.00010520		 0.00026770		-0.00019637
O		12.59620378		15.71679109		0.85371392		-0.00013776		-0.00025784		 0.00019726
O		14.70589932		6.88858210		3.45434395		 0.00004471		-0.00012209		 0.00026281
O		3.49551940		10.76800423		1.74886600		-0.00007495		 0.00010367		-0.00027404
O		12.59621118		10.76808563		0.85370652		-0.00014246		 0.00024171		 0.00021537
O		5.60521124		6.88849885		4.34950342		 0.00011089		-0.00025075		-0.00021504
O		3.46959165		15.31583135		4.30199912		-0.00038928		-0.00013151		 0.00015969
O		14.73182707		2.34074388		0.90119417		 0.00036614		 0.00016323		-0.00011208
O		5.63140908		2.33923983		1.69942290		 0.00038974		 0.00040621		-0.00013243
O		12.57001148		15.31734280		3.50379445		-0.00041818		-0.00039561		 0.00011418
O		14.73182337		6.48751691		0.90121267		 0.00036368		-0.00011558		-0.00017879
O		3.46959350		11.16906942		4.30198062		-0.00038639		 0.00008547		 0.00022418
O		12.57001518		11.16753947		3.50380555		-0.00041936		 0.00036492		 0.00007024
O		5.63140538		6.48904131		1.69940995		 0.00039166		-0.00037413		-0.00008652
H		17.72021338		-0.60694798		1.57274415		 0.00072571		 0.00024723		 0.00013456
H		0.48122199		0.60693133		3.63045654		-0.00074998		-0.00024061		-0.00013250
H		9.58220792		0.60741418		4.17535183		-0.00069183		-0.00026950		 0.00009992
H		8.61921635		-0.60741788		1.02787107		 0.00071674		 0.00023143		-0.00010273
H		0.48123679		8.22138681		3.63045654		-0.00081520		 0.00017279		-0.00013531
H		17.72018193		9.43519397		1.57274600		 0.00080110		-0.00016896		 0.00013756
H		8.61917380		9.43566572		1.02786737		 0.00083433		-0.00010806		-0.00010759
H		9.58223382		8.22090211		4.17535368		-0.00080009		 0.00015549		 0.00010463
