# total energy = -92496.7366322 eV

CRYSTAL
PRIMVEC
		18.40557546		0.00001850		0.00009250
		0.00001850		17.78562198		0.00000000
		0.00001850		0.00000000		5.25024435
PRIMECORD
   164 1
Mg		2.37669493		3.12698461		2.10381439		 0.00019002		-0.00005376		-0.00042278
Mg		16.02892678		14.65864847		3.14651506		-0.00018939		 0.00005342		 0.00042273
Mg		6.82631665		14.65858557		4.72891066		-0.00025388		 0.00008103		-0.00042406
Mg		11.57930506		3.12704566		0.52141878		 0.00025334		-0.00008064		 0.00042397
Mg		16.02892308		12.01979930		3.14651506		-0.00018881		-0.00003863		 0.00042250
Mg		2.37669863		5.76583193		2.10381439		 0.00018940		 0.00003901		-0.00042252
Mg		11.57930691		5.76578383		0.52141693		 0.00025164		 0.00006349		 0.00042275
Mg		6.82631480		12.01984925		4.72891251		-0.00025213		-0.00006428		-0.00042278
Mg		2.46711368		1.43343361		4.72790981		 0.00007870		 0.00022725		-0.00012969
Mg		15.93850803		16.35219947		0.52241963		-0.00007815		-0.00022775		 0.00012985
Mg		6.73517085		16.35177212		2.10286349		-0.00004329		-0.00022775		-0.00016151
Mg		11.67045086		1.43385911		3.14746596		 0.00004272		 0.00022803		 0.00016170
Mg		15.93850433		10.32625200		0.52241778		-0.00007907		 0.00023603		 0.00013204
Mg		2.46711553		7.45938108		4.72791166		 0.00007969		-0.00023560		-0.00013185
Mg		11.67045456		7.45896668		3.14746041		 0.00004184		-0.00022886		 0.00016258
Mg		6.73516715		10.32666640		2.10286904		-0.00004241		 0.00022861		-0.00016252
Mg		2.47779558		17.66738663		2.00279699		 0.00042112		 0.00002779		 0.00013933
Mg		15.92782613		0.11824645		3.24753245		-0.00042087		-0.00002838		-0.00013936
Mg		6.72436500		0.11799115		4.62811711		-0.00043538		-0.00001945		 0.00013590
Mg		11.68125671		17.66764193		0.62221418		 0.00043514		 0.00001992		-0.00013598
Mg		15.92782983		8.77458119		3.24752690		-0.00041952		 0.00003009		-0.00013933
Mg		2.47779188		9.01105189		2.00280254		 0.00041988		-0.00002970		 0.00013936
Mg		11.68125301		9.01080399		0.62221048		 0.00043522		-0.00001071		-0.00013545
Mg		6.72437055		8.77482909		4.62811896		-0.00043564		 0.00001033		 0.00013534
Mg		2.34955543		4.44640642		4.73827166		 0.00013040		-0.00000765		 0.00037108
Mg		16.05606628		13.33922666		0.51205778		-0.00012972		 0.00000770		-0.00037122
Mg		6.85567800		13.33921741		2.11321054		-0.00015620		 0.00001175		 0.00041463
Mg		11.54994371		4.44641567		3.13711891		 0.00015555		-0.00001215		-0.00041485
Si		0.36977984		14.80212522		1.45660486		-0.00016259		-0.00002233		 0.00020530
Si		18.03584002		2.98350786		3.79372459		 0.00016969		 0.00001972		-0.00020538
Si		8.83275999		2.98335431		4.08155128		 0.00016644		 0.00010672		 0.00018663
Si		9.57286172		14.80227877		1.16877817		-0.00016951		-0.00010639		-0.00018658
Si		18.03584187		5.90936048		3.79372089		 0.00015576		-0.00012323		-0.00019129
Si		0.36977799		11.87627260		1.45660856		-0.00014955		 0.00012646		 0.00019095
Si		9.57284877		11.87614865		1.16878742		-0.00011953		 0.00016798		-0.00019399
Si		8.83277479		5.90948443		4.08154203		 0.00011061		-0.00017288		 0.00019352
Si		0.38571019		16.21073367		4.10965463		 0.00019924		-0.00014474		 0.00025816
Si		18.01990967		1.57489940		1.14067667		-0.00019228		 0.00014090		-0.00025800
Si		8.81711454		1.57469775		1.48440851		-0.00023522		 0.00015877		 0.00023245
Si		9.58850902		16.21093347		3.76592279		 0.00023053		-0.00015652		-0.00023310
Si		18.01992447		7.31795414		1.14067297		-0.00022045		-0.00018187		-0.00024417
Si		0.38569539		10.46767709		4.10965648		 0.00022712		 0.00018478		 0.00024364
Si		9.58848867		10.46748284		3.76592464		 0.00027622		 0.00022837		-0.00022091
Si		8.81713489		7.31815024		1.48440481		-0.00028240		-0.00023071		 0.00022092
Si		4.15800993		16.33273562		0.29532844		-0.00014820		 0.00035013		 0.00012670
Si		14.24761178		1.45289746		4.95500100		 0.00014620		-0.00035060		-0.00012688
Si		5.04461130		1.45255151		2.92020271		 0.00031140		-0.00037245		 0.00014178
Si		13.36101041		16.33308157		2.33012858		-0.00031170		 0.00037298		-0.00014184
Si		14.24761548		7.43993573		4.95499545		 0.00014434		 0.00033956		-0.00011997
Si		4.15800623		10.34569735		0.29533399		-0.00014433		-0.00033864		 0.00011980
Si		13.36101041		10.34535510		2.33012673		-0.00032316		-0.00033554		-0.00013109
Si		5.04461130		7.44027798		2.92020271		 0.00032416		 0.00033619		 0.00013129
Si		4.13981518		14.81268132		2.96657851		-0.00009045		 0.00007765		 0.00019617
Si		14.26580653		2.97295176		2.28375093		 0.00008728		-0.00007909		-0.00019639
Si		5.06295590		2.97275011		0.34114184		 0.00034344		 0.00001014		 0.00021030
Si		13.34266581		14.81288297		4.90918761		-0.00034224		-0.00000928		-0.00021042
Si		14.26578803		5.91991843		2.28374168		 0.00015170		-0.00006516		-0.00017107
Si		4.13983368		11.86571465		2.96658776		-0.00015258		 0.00006489		 0.00017111
Si		13.34267876		11.86554075		4.90918576		-0.00038928		 0.00009260		-0.00019634
Si		5.06294110		5.92009233		0.34114369		 0.00039058		-0.00009200		 0.00019651
O		1.18673797		1.24971011		1.15989632		-0.00040740		 0.00000418		-0.00048550
O		17.21888559		16.53592296		4.09043313		 0.00040238		-0.00000279		 0.00048555
O		8.01606826		16.53600806		3.78525714		 0.00039342		-0.00002049		-0.00049181
O		10.38955160		1.24962501		1.46507231		-0.00039018		 0.00001964		 0.00049200
O		17.21888374		10.14253405		4.09044238		 0.00038620		-0.00000858		 0.00048123
O		1.18673797		7.64309903		1.15988707		-0.00039078		 0.00000743		-0.00048114
O		10.38954605		7.64319523		1.46506676		-0.00035294		-0.00000245		 0.00049096
O		8.01607381		10.14243600		3.78526269		 0.00035757		 0.00000352		-0.00049082
O		1.21875221		2.77417112		3.81128849		-0.00008223		-0.00019463		 0.00011496
O		17.18687135		15.01146196		1.43904096		 0.00007639		 0.00019520		-0.00011506
O		7.98433892		15.01144901		1.18656962		 0.00005829		 0.00019776		 0.00009982
O		10.42128094		2.77418407		4.06375983		-0.00005520		-0.00019810		-0.00009996
O		17.18687135		11.66700061		1.43903911		 0.00006948		-0.00020899		-0.00011456
O		1.21875221		6.11863247		3.81129034		-0.00007463		 0.00020826		 0.00011448
O		10.42127354		6.11863247		4.06375428		-0.00001945		 0.00021885		-0.00010092
O		7.98434632		11.66700061		1.18657517		 0.00002605		-0.00021795		 0.00010071
O		0.96127107		13.33923221		1.15168047		 0.00006623		-0.00007086		 0.00028020
O		17.44435064		4.44640087		4.09864713		-0.00006840		 0.00007086		-0.00027956
O		8.24143526		4.44639717		3.77677119		-0.00003963		 0.00004767		 0.00029555
O		10.16418645		13.33923406		1.47355826		 0.00004156		-0.00004297		-0.00029493
O		1.23081421		4.44640272		1.13896172		 0.00002785		 0.00000884		-0.00000692
O		17.17480935		13.33923036		4.11136773		-0.00002889		-0.00000892		 0.00000685
O		7.97276347		13.33922296		3.76465739		-0.00004369		-0.00000898		-0.00002079
O		10.43285824		4.44641012		1.48567206		 0.00004442		 0.00000923		 0.00002082
O		1.16628807		-0.09422420		3.70188689		-0.00020465		 0.00014610		 0.00007969
O		17.23932439		0.09423345		1.54844810		 0.00019447		-0.00013312		-0.00008092
O		8.03628691		0.09405585		1.07688682		-0.00002754		 0.00018670		 0.00009602
O		10.36932185		-0.09404105		4.17344818		 0.00002939		-0.00018891		-0.00009622
O		17.23931514		8.79859234		1.54843700		 0.00023102		 0.00017952		-0.00007487
O		1.16630657		8.98704074		3.70189244		-0.00023441		-0.00018325		 0.00007458
O		10.36940510		8.98696489		4.17342968		-0.00022947		-0.00016216		-0.00006117
O		8.03621476		8.79866634		1.07689977		 0.00023662		 0.00017042		 0.00006037
O		0.97502027		15.87302358		0.33961189		-0.00015103		 0.00011871		 0.00056103
O		17.43060144		1.91260764		4.91071941		 0.00014961		-0.00011826		-0.00056241
O		8.22761946		1.91267054		2.96445656		 0.00014306		-0.00013818		 0.00053117
O		10.17800225		15.87296253		2.28587473		-0.00014213		 0.00013746		-0.00053243
O		17.43061439		6.98022555		4.91071201		 0.00014006		 0.00013701		-0.00054023
O		0.97500917		10.80540753		0.33961744		-0.00014121		-0.00013778		 0.00053872
O		10.17799670		10.80548893		2.28588398		-0.00014581		-0.00014653		-0.00053013
O		8.22762316		6.98014230		2.96444731		 0.00014721		 0.00014668		 0.00052919
O		0.98114377		15.33242955		2.88659747		 0.00008687		 0.00007918		-0.00004479
O		17.42447794		2.45320168		2.36373198		-0.00008855		-0.00007855		 0.00004598
O		8.22166431		2.45299448		0.26128104		-0.00012070		-0.00013723		 0.00003368
O		10.18395740		15.33263860		4.98904840		 0.00012169		 0.00013586		-0.00003167
O		17.42447239		6.43963151		2.36374493		-0.00008417		 0.00010764		 0.00000544
O		0.98114932		11.34600342		2.88658452		 0.00008270		-0.00010914		-0.00000328
O		10.18396295		11.34579437		4.98906135		 0.00010254		-0.00014010		-0.00003978
O		8.22165876		6.43983871		0.26126809		-0.00010118		 0.00014051		 0.00004056
O		3.45797365		2.90113106		0.35678914		 0.00017175		-0.00038584		 0.00013751
O		14.94764806		14.88450201		4.89354031		-0.00017254		 0.00038595		-0.00013749
O		5.74491583		14.88418196		2.98231461		-0.00032888		 0.00034225		 0.00012705
O		12.66070403		2.90144926		2.26801483		 0.00033119		-0.00034209		-0.00012699
O		14.94764066		11.79395130		4.89354031		-0.00014645		-0.00039719		-0.00013663
O		3.45798105		5.99168177		0.35678914		 0.00014548		 0.00039707		 0.00013666
O		12.66071328		5.99137097		2.26801483		 0.00030193		 0.00035754		-0.00012667
O		5.74490843		11.79426210		2.98231461		-0.00030104		-0.00035737		 0.00012681
O		3.42148980		1.37760246		2.92797826		 0.00032081		 0.00031209		-0.00003160
O		14.98413376		16.40803062		2.32235118		-0.00032060		-0.00031197		 0.00003161
O		5.78124058		16.40759772		0.30291159		-0.00047949		-0.00029158		-0.00001584
O		12.62437928		1.37803536		4.94741785		 0.00048083		 0.00029148		 0.00001593
O		14.98412821		10.27041715		2.32235118		-0.00031311		 0.00030580		 0.00003162
O		3.42149350		7.51521593		2.92797826		 0.00031251		-0.00030585		-0.00003160
O		12.62438113		7.51479228		4.94741415		 0.00048419		-0.00029097		 0.00001567
O		5.78124058		10.27083895		0.30291529		-0.00048412		 0.00029114		-0.00001558
O		3.48985100		0.00658600		0.30518339		-0.00026400		 0.00025304		-0.00017935
O		14.91575776		-0.00657305		4.94514975		 0.00026425		-0.00025289		 0.00017928
O		5.71289418		-0.00689310		2.93032591		 0.00018049		-0.00015346		-0.00017193
O		12.69271458		0.00690790		2.32000908		-0.00018017		 0.00015293		 0.00017185
O		14.91576331		8.89940254		4.94514420		 0.00026520		 0.00025230		 0.00017947
O		3.48985840		8.88623054		0.30518524		-0.00026561		-0.00025319		-0.00017959
O		12.69272013		8.88592714		2.32000168		-0.00018503		-0.00017427		 0.00017221
O		5.71290343		8.89970409		2.93032776		 0.00018471		 0.00017377		-0.00017222
O		3.51021025		13.33925256		2.76977367		 0.00001741		-0.00011734		 0.00002876
O		14.89541146		4.44638052		2.48055578		-0.00001672		 0.00011897		-0.00002866
O		5.69252753		4.44638977		5.39519739		-0.00009204		 0.00006523		-0.00000262
O		12.71309418		13.33924331		-0.14486795		 0.00009165		-0.00006631		 0.00000268
O		3.40665280		4.44640642		3.08824191		 0.00065697		 0.00000630		-0.00020189
O		14.99896891		13.33922666		2.16208754		-0.00065732		-0.00000632		 0.00020180
O		5.79710063		13.33922296		0.46381164		-0.00069837		-0.00000985		-0.00022774
O		12.60852108		4.44641012		4.78651781		 0.00069866		 0.00001016		 0.00022768
O		3.54997415		15.80290119		1.76817630		 0.00013095		 0.00049024		 0.00032490
O		14.85564756		1.98273189		3.48215315		-0.00013041		-0.00049006		-0.00032517
O		5.65289683		1.98280589		4.39283782		-0.00017691		-0.00050751		 0.00033356
O		12.75272488		15.80282719		0.85749162		 0.00017673		 0.00050741		-0.00033368
O		14.85564756		6.91009575		3.48214945		-0.00012673		 0.00049782		-0.00031576
O		3.54997415		10.87553733		1.76818185		 0.00012694		-0.00049806		 0.00031558
O		12.75272488		10.87562428		0.85749162		 0.00017812		-0.00051641		-0.00032190
O		5.65289683		6.91000695		4.39283782		-0.00017851		 0.00051628		 0.00032197
O		3.53434905		15.45300885		4.33606687		 0.00011798		 0.00023327		 0.00020700
O		14.87127266		2.33262423		0.91426257		-0.00011738		-0.00023289		-0.00020653
O		5.66816858		2.33214138		1.71053955		-0.00010984		-0.00027891		 0.00023093
O		12.73745313		15.45349170		3.53978990		 0.00010973		 0.00027871		-0.00023069
O		14.87127451		6.56020711		0.91427182		-0.00011257		 0.00024983		-0.00023266
O		3.53434720		11.22542597		4.33605762		 0.00011284		-0.00025011		 0.00023298
O		12.73744758		11.22495422		3.53980470		 0.00011389		-0.00029860		-0.00025978
O		5.66817413		6.56067886		1.71052475		-0.00011420		 0.00029836		 0.00025942
H		17.88639148		-0.62822853		1.61346080		 0.00037604		 0.00021310		-0.00024139
H		0.51921543		0.62824333		3.63687234		-0.00036586		-0.00022367		 0.00024244
H		9.72230286		0.62812123		4.23873653		-0.00059940		 0.00009049		-0.00021223
H		8.68330590		-0.62810828		1.01159477		 0.00059762		-0.00008868		 0.00021241
H		0.51920988		8.26456026		3.63686864		-0.00033605		 0.00025138		 0.00024537
H		17.88640998		9.52107282		1.61345895		 0.00033919		-0.00024837		-0.00024509
H		8.68339285		9.52101362		1.01157627		 0.00032836		-0.00019799		 0.00024242
H		9.72223071		8.26462131		4.23875133		-0.00033528		 0.00019096		-0.00024171
