# total energy = -41273.2353848 eV

CRYSTAL
PRIMVEC
		5.41290966		0.00000000		0.00000000
		0.00000000		11.46199859		0.00000000
		0.00000000		0.00000000		8.25710138
PRIMECORD
   56 1
Mg		0.00000000		0.00000000		0.00000000		0.00000000		0.00000000		0.00000000
Mg		0.00000000		5.73099983		0.00000000		0.00000000		0.00000000		0.00000000
Mg		2.70645483		5.73099983		4.12854961		0.00000000		0.00000000		0.00000000
Mg		2.70645483		0.00000000		4.12854961		0.00000000		0.00000000		0.00000000
Mg		0.00000000		2.86549965		8.00773567		0.00000000		 0.00000001		 0.00052483
Mg		0.00000000		8.59649948		0.24936409		0.00000000		-0.00000001		-0.00052483
Mg		2.70645483		8.59649948		3.87918552		0.00000000		-0.00000002		 0.00052482
Mg		2.70645483		2.86549965		4.37791478		0.00000000		 0.00000002		-0.00052482
Mg		1.35322796		1.45452785		2.06427480		0.00000000		-0.00075903		 0.00000001
Mg		4.05968278		10.00747127		6.19282441		-0.00000000		 0.00075903		-0.00000001
Mg		4.05968278		4.27647198		2.06427480		-0.00000000		 0.00075904		-0.00000001
Mg		1.35322796		7.18552769		6.19282441		0.00000000		-0.00075904		 0.00000001
Mg		4.05968278		7.18552769		6.19282441		-0.00000000		-0.00075904		 0.00000001
Mg		1.35322796		4.27647198		2.06427480		0.00000000		 0.00075904		-0.00000001
Mg		1.35322796		10.00747127		6.19282441		0.00000000		 0.00075903		-0.00000001
Mg		4.05968278		1.45452785		2.06427480		-0.00000000		-0.00075903		 0.00000001
Si		0.00000000		1.37429392		5.09050160		0.00000000		-0.00003505		-0.00081110
Si		0.00000000		10.08770521		3.16659762		0.00000000		 0.00003505		 0.00081110
Si		0.00000000		4.35670592		5.09050160		0.00000000		 0.00003513		-0.00081099
Si		0.00000000		7.10529375		3.16659762		0.00000000		-0.00003513		 0.00081099
Si		2.70645483		7.10529375		0.96195199		0.00000000		-0.00003507		-0.00081104
Si		2.70645483		4.35670592		7.29514777		0.00000000		 0.00003507		 0.00081104
Si		2.70645483		10.08770521		0.96195199		0.00000000		 0.00003509		-0.00081099
Si		2.70645483		1.37429392		7.29514777		0.00000000		-0.00003509		 0.00081099
O		0.00000000		2.86549965		1.80169889		-0.00000000		-0.00000003		 0.00028795
O		0.00000000		8.59649948		6.45540033		-0.00000000		 0.00000003		-0.00028795
O		2.70645483		8.59649948		5.93024850		0.00000000		0.00000000		 0.00028797
O		2.70645483		2.86549965		2.32685072		0.00000000		-0.00000000		-0.00028797
O		0.00000000		2.86549965		5.90960583		0.00000000		-0.00000003		 0.00015622
O		0.00000000		8.59649948		2.34749394		0.00000000		 0.00000003		-0.00015622
O		2.70645483		8.59649948		1.78105567		0.00000000		 0.00000001		 0.00015616
O		2.70645483		2.86549965		6.47604355		0.00000000		-0.00000001		-0.00015616
O		0.00000000		11.34508623		2.11794597		0.00000000		-0.00024058		-0.00021930
O		0.00000000		0.11691289		6.13915379		0.00000000		 0.00024058		 0.00021930
O		0.00000000		5.84791273		2.11794597		-0.00000000		 0.00024061		-0.00021920
O		0.00000000		5.61408640		6.13915379		-0.00000000		-0.00024061		 0.00021920
O		2.70645483		5.61408640		6.24649558		0.00000000		-0.00024059		-0.00021926
O		2.70645483		5.84791273		2.01060364		0.00000000		 0.00024059		 0.00021926
O		2.70645483		0.11691289		6.24649558		0.00000000		 0.00024061		-0.00021927
O		2.70645483		11.34508623		2.01060364		0.00000000		-0.00024061		 0.00021927
O		1.40789780		1.40524115		8.20012564		-0.00019758		-0.00031212		-0.00060655
O		4.00501186		10.05675744		0.05697412		 0.00019758		 0.00031212		 0.00060655
O		4.00501186		4.32575869		8.20012564		 0.00019757		 0.00031210		-0.00060659
O		1.40789780		7.13624044		0.05697412		-0.00019757		-0.00031210		 0.00060659
O		4.00501186		7.13624044		0.05697412		 0.00019757		-0.00031210		 0.00060659
O		1.40789780		4.32575869		8.20012564		-0.00019757		 0.00031210		-0.00060659
O		1.40789780		10.05675744		0.05697412		-0.00019758		 0.00031212		 0.00060655
O		4.00501186		1.40524115		8.20012564		 0.00019758		-0.00031212		-0.00060655
O		4.11435263		7.13624044		4.07157549		-0.00019767		-0.00031210		-0.00060655
O		1.29855703		4.32575869		4.18552373		 0.00019767		 0.00031210		 0.00060655
O		1.29855703		10.05675744		4.07157549		 0.00019760		 0.00031210		-0.00060656
O		4.11435263		1.40524115		4.18552373		-0.00019760		-0.00031210		 0.00060656
O		1.29855703		1.40524115		4.18552373		 0.00019760		-0.00031210		 0.00060656
O		4.11435263		10.05675744		4.07157549		-0.00019760		 0.00031210		-0.00060656
O		4.11435263		4.32575869		4.18552373		-0.00019767		 0.00031210		 0.00060655
O		1.29855703		7.13624044		4.07157549		 0.00019767		-0.00031210		-0.00060655
