# total energy = -41274.7972872 eV

CRYSTAL
PRIMVEC
		5.55535463		0.00000000		0.00000000
		0.00000000		11.46199656		0.00000000
		0.00000000		0.00000000		8.25710136
PRIMECORD
   56 1
Mg		0.00000000		0.00000000		0.00000000		0.00000000		0.00000000		0.00000000
Mg		0.00000000		5.73099939		0.00000000		0.00000000		0.00000000		0.00000000
Mg		2.77767787		5.73099939		4.12854957		0.00000000		0.00000000		0.00000000
Mg		2.77767787		0.00000000		4.12854957		0.00000000		0.00000000		0.00000000
Mg		0.00000000		2.86549970		8.00773538		0.00000000		 0.00000001		 0.00030581
Mg		0.00000000		8.59649964		0.24936376		0.00000000		-0.00000001		-0.00030581
Mg		2.77767787		8.59649964		3.87918581		0.00000000		-0.00000001		 0.00030579
Mg		2.77767787		2.86549970		4.37791444		0.00000000		 0.00000001		-0.00030579
Mg		1.38883866		1.45452795		2.06427479		-0.00000000		-0.00038758		-0.00000002
Mg		4.16651598		10.00747139		6.19282436		0.00000000		 0.00038758		 0.00000002
Mg		4.16651598		4.27647144		2.06427479		-0.00000000		 0.00038758		-0.00000002
Mg		1.38883866		7.18552734		6.19282436		0.00000000		-0.00038758		 0.00000002
Mg		4.16651598		7.18552734		6.19282436		-0.00000000		-0.00038758		 0.00000002
Mg		1.38883866		4.27647144		2.06427479		0.00000000		 0.00038758		-0.00000002
Mg		1.38883866		10.00747139		6.19282436		-0.00000000		 0.00038758		 0.00000002
Mg		4.16651598		1.45452795		2.06427479		0.00000000		-0.00038758		-0.00000002
Si		0.00000000		1.37429418		5.09050145		0.00000000		-0.00010107		-0.00046983
Si		0.00000000		10.08770516		3.16659770		0.00000000		 0.00010107		 0.00046983
Si		0.00000000		4.35670576		5.09050145		0.00000000		 0.00010110		-0.00046974
Si		0.00000000		7.10529358		3.16659770		0.00000000		-0.00010110		 0.00046974
Si		2.77767787		7.10529358		0.96195188		0.00000000		-0.00010103		-0.00046992
Si		2.77767787		4.35670576		7.29514727		0.00000000		 0.00010103		 0.00046992
Si		2.77767787		10.08770516		0.96195188		0.00000000		 0.00010104		-0.00046990
Si		2.77767787		1.37429418		7.29514727		0.00000000		-0.00010104		 0.00046990
O		0.00000000		2.86549970		1.80169873		-0.00000000		 0.00000001		 0.00001323
O		0.00000000		8.59649964		6.45540042		-0.00000000		-0.00000001		-0.00001323
O		2.77767787		8.59649964		5.93024885		0.00000000		 0.00000002		 0.00001320
O		2.77767787		2.86549970		2.32685084		0.00000000		-0.00000002		-0.00001320
O		0.00000000		2.86549970		5.90960571		0.00000000		-0.00000001		 0.00038209
O		0.00000000		8.59649964		2.34749399		0.00000000		 0.00000001		-0.00038209
O		2.77767787		8.59649964		1.78105614		0.00000000		0.00000000		 0.00038215
O		2.77767787		2.86549970		6.47604356		0.00000000		-0.00000000		-0.00038215
O		0.00000000		11.34508635		2.11794562		-0.00000000		-0.00012117		-0.00026843
O		0.00000000		0.11691299		6.13915352		-0.00000000		 0.00012117		 0.00026843
O		0.00000000		5.84791239		2.11794562		0.00000000		 0.00012122		-0.00026843
O		0.00000000		5.61408640		6.13915352		0.00000000		-0.00012122		 0.00026843
O		2.77767787		5.61408640		6.24649575		0.00000000		-0.00012113		-0.00026849
O		2.77767787		5.84791239		2.01060395		0.00000000		 0.00012113		 0.00026849
O		2.77767787		0.11691299		6.24649575		0.00000000		 0.00012115		-0.00026845
O		2.77767787		11.34508635		2.01060395		0.00000000		-0.00012115		 0.00026845
O		1.44494774		1.40524084		8.20012565		-0.00023883		-0.00015288		-0.00042194
O		4.11040689		10.05675739		0.05697405		 0.00023883		 0.00015288		 0.00042194
O		4.11040689		4.32575855		8.20012565		 0.00023881		 0.00015286		-0.00042193
O		1.44494774		7.13624079		0.05697405		-0.00023881		-0.00015286		 0.00042193
O		4.11040689		7.13624079		0.05697405		 0.00023881		-0.00015286		 0.00042193
O		1.44494774		4.32575855		8.20012565		-0.00023881		 0.00015286		-0.00042193
O		1.44494774		10.05675739		0.05697405		-0.00023883		 0.00015288		 0.00042194
O		4.11040689		1.40524084		8.20012565		 0.00023883		-0.00015288		-0.00042194
O		4.22262450		7.13624079		4.07157552		-0.00023890		-0.00015287		-0.00042191
O		1.33273013		4.32575855		4.18552362		 0.00023890		 0.00015287		 0.00042191
O		1.33273013		10.05675739		4.07157552		 0.00023887		 0.00015288		-0.00042192
O		4.22262450		1.40524084		4.18552362		-0.00023887		-0.00015288		 0.00042192
O		1.33273013		1.40524084		4.18552362		 0.00023887		-0.00015288		 0.00042192
O		4.22262450		10.05675739		4.07157552		-0.00023887		 0.00015288		-0.00042192
O		4.22262450		4.32575855		4.18552362		-0.00023890		 0.00015287		 0.00042191
O		1.33273013		7.13624079		4.07157552		 0.00023890		-0.00015287		-0.00042191
