# total energy = -41275.3988848 eV

CRYSTAL
PRIMVEC
		5.84024512		0.00000000		0.00000000
		0.00000000		11.46200082		0.00000000
		0.00000000		0.00000000		8.25710207
PRIMECORD
   56 1
Mg		0.00000000		0.00000000		0.00000000		0.00000000		0.00000000		0.00000000
Mg		0.00000000		5.73099983		0.00000000		0.00000000		0.00000000		0.00000000
Mg		2.92012314		5.73099983		4.12854987		0.00000000		0.00000000		0.00000000
Mg		2.92012314		0.00000000		4.12854987		0.00000000		0.00000000		0.00000000
Mg		0.00000000		2.86549991		8.00773587		-0.00000000		-0.00000003		-0.00045970
Mg		0.00000000		8.59650033		0.24936387		-0.00000000		 0.00000003		 0.00045970
Mg		2.92012314		8.59650033		3.87918600		0.00000000		 0.00000001		-0.00045974
Mg		2.92012314		2.86549991		4.37791490		0.00000000		-0.00000001		 0.00045974
Mg		1.46006128		1.45452823		2.06427493		-0.00000004		-0.00023428		-0.00000001
Mg		4.38018384		10.00747201		6.19282539		 0.00000004		 0.00023428		 0.00000001
Mg		4.38018384		4.27647218		2.06427493		 0.00000003		 0.00023426		-0.00000000
Mg		1.46006128		7.18552806		6.19282539		-0.00000003		-0.00023426		0.00000000
Mg		4.38018384		7.18552806		6.19282539		 0.00000003		-0.00023426		0.00000000
Mg		1.46006128		4.27647218		2.06427493		-0.00000003		 0.00023426		-0.00000000
Mg		1.46006128		10.00747201		6.19282539		-0.00000004		 0.00023428		 0.00000001
Mg		4.38018384		1.45452823		2.06427493		 0.00000004		-0.00023428		-0.00000001
Si		0.00000000		1.37429378		5.09050190		0.00000000		 0.00030538		-0.00013798
Si		0.00000000		10.08770647		3.16659784		0.00000000		-0.00030538		 0.00013798
Si		0.00000000		4.35670605		5.09050190		0.00000000		-0.00030543		-0.00013798
Si		0.00000000		7.10529419		3.16659784		0.00000000		 0.00030543		 0.00013798
Si		2.92012314		7.10529419		0.96195203		0.00000000		 0.00030536		-0.00013784
Si		2.92012314		4.35670605		7.29514829		0.00000000		-0.00030536		 0.00013784
Si		2.92012314		10.08770647		0.96195203		-0.00000000		-0.00030537		-0.00013788
Si		2.92012314		1.37429378		7.29514829		-0.00000000		 0.00030537		 0.00013788
O		0.00000000		2.86549991		1.80169927		0.00000000		-0.00000005		-0.00041003
O		0.00000000		8.59650033		6.45540106		0.00000000		 0.00000005		 0.00041003
O		2.92012314		8.59650033		5.93024913		0.00000000		-0.00000006		-0.00041000
O		2.92012314		2.86549991		2.32685119		0.00000000		 0.00000006		 0.00041000
O		0.00000000		2.86549991		5.90960620		0.00000000		 0.00000003		 0.00082744
O		0.00000000		8.59650033		2.34749412		0.00000000		-0.00000003		-0.00082744
O		2.92012314		8.59650033		1.78105575		0.00000000		 0.00000011		 0.00082736
O		2.92012314		2.86549991		6.47604399		0.00000000		-0.00000011		-0.00082736
O		0.00000000		11.34508729		2.11794620		0.00000000		-0.00034378		-0.00055380
O		0.00000000		0.11691295		6.13915412		0.00000000		 0.00034378		 0.00055380
O		0.00000000		5.84791336		2.11794620		0.00000000		 0.00034385		-0.00055378
O		0.00000000		5.61408688		6.13915412		0.00000000		-0.00034385		 0.00055378
O		2.92012314		5.61408688		6.24649607		0.00000000		-0.00034373		-0.00055368
O		2.92012314		5.84791336		2.01060425		0.00000000		 0.00034373		 0.00055368
O		2.92012314		0.11691295		6.24649607		0.00000000		 0.00034384		-0.00055380
O		2.92012314		11.34508729		2.01060425		0.00000000		-0.00034384		 0.00055380
O		1.51904776		1.40524123		8.20012639		-0.00013365		-0.00020599		-0.00070315
O		4.32119736		10.05675842		0.05697393		 0.00013365		 0.00020599		 0.00070315
O		4.32119736		4.32575918		8.20012639		 0.00013371		 0.00020603		-0.00070311
O		1.51904776		7.13624106		0.05697393		-0.00013371		-0.00020603		 0.00070311
O		4.32119736		7.13624106		0.05697393		 0.00013371		-0.00020603		 0.00070311
O		1.51904776		4.32575918		8.20012639		-0.00013371		 0.00020603		-0.00070311
O		1.51904776		10.05675842		0.05697393		-0.00013365		 0.00020599		 0.00070315
O		4.32119736		1.40524123		8.20012639		 0.00013365		-0.00020599		-0.00070315
O		4.43917031		7.13624106		4.07157594		-0.00013371		-0.00020601		-0.00070316
O		1.40107480		4.32575918		4.18552380		 0.00013371		 0.00020601		 0.00070316
O		1.40107480		10.05675842		4.07157594		 0.00013376		 0.00020600		-0.00070313
O		4.43917031		1.40524123		4.18552380		-0.00013376		-0.00020600		 0.00070313
O		1.40107480		1.40524123		4.18552380		 0.00013376		-0.00020600		 0.00070313
O		4.43917031		10.05675842		4.07157594		-0.00013376		 0.00020600		-0.00070313
O		4.43917031		4.32575918		4.18552380		-0.00013371		 0.00020601		 0.00070316
O		1.40107480		7.13624106		4.07157594		 0.00013371		-0.00020601		-0.00070316
