# total energy = -41274.6692289 eV

CRYSTAL
PRIMVEC
		5.98269009		0.00000000		0.00000000
		0.00000000		11.46200263		0.00000000
		0.00000000		0.00000000		8.25709947
PRIMECORD
   56 1
Mg		0.00000000		0.00000000		0.00000000		0.00000000		0.00000000		0.00000000
Mg		0.00000000		5.73100012		0.00000000		0.00000000		0.00000000		0.00000000
Mg		2.99134505		5.73100012		4.12855034		0.00000000		0.00000000		0.00000000
Mg		2.99134505		0.00000000		4.12855034		0.00000000		0.00000000		0.00000000
Mg		0.00000000		2.86549976		8.00773616		0.00000000		-0.00000000		-0.00025295
Mg		0.00000000		8.59649988		0.24936391		0.00000000		0.00000000		 0.00025295
Mg		2.99134505		8.59649988		3.87918583		0.00000000		0.00000000		-0.00025296
Mg		2.99134505		2.86549976		4.37791484		0.00000000		-0.00000000		 0.00025296
Mg		1.49567312		1.45452777		2.06427517		0.00000000		-0.00003705		-0.00000001
Mg		4.48701817		10.00747187		6.19282490		-0.00000000		 0.00003705		 0.00000001
Mg		4.48701817		4.27647235		2.06427517		-0.00000000		 0.00003705		-0.00000001
Mg		1.49567312		7.18552789		6.19282490		0.00000000		-0.00003705		 0.00000001
Mg		4.48701817		7.18552789		6.19282490		-0.00000000		-0.00003705		 0.00000001
Mg		1.49567312		4.27647235		2.06427517		0.00000000		 0.00003705		-0.00000001
Mg		1.49567312		10.00747187		6.19282490		0.00000000		 0.00003705		 0.00000001
Mg		4.48701817		1.45452777		2.06427517		-0.00000000		-0.00003705		-0.00000001
Si		0.00000000		1.37429391		5.09050229		-0.00000000		 0.00012911		 0.00018864
Si		0.00000000		10.08770632		3.16659778		-0.00000000		-0.00012911		-0.00018864
Si		0.00000000		4.35670620		5.09050229		0.00000000		-0.00012914		 0.00018864
Si		0.00000000		7.10529403		3.16659778		0.00000000		 0.00012914		-0.00018864
Si		2.99134505		7.10529403		0.96195195		0.00000000		 0.00012911		 0.00018867
Si		2.99134505		4.35670620		7.29514812		0.00000000		-0.00012911		-0.00018867
Si		2.99134505		10.08770632		0.96195195		-0.00000000		-0.00012909		 0.00018867
Si		2.99134505		1.37429391		7.29514812		-0.00000000		 0.00012909		-0.00018867
O		0.00000000		2.86549976		1.80169909		0.00000000		-0.00000002		 0.00017999
O		0.00000000		8.59649988		6.45540099		0.00000000		 0.00000002		-0.00017999
O		2.99134505		8.59649988		5.93024882		0.00000000		 0.00000001		 0.00018001
O		2.99134505		2.86549976		2.32685125		0.00000000		-0.00000001		-0.00018001
O		0.00000000		2.86549976		5.90960615		0.00000000		 0.00000001		-0.00032007
O		0.00000000		8.59649988		2.34749392		0.00000000		-0.00000001		 0.00032007
O		2.99134505		8.59649988		1.78105582		0.00000000		-0.00000000		-0.00032012
O		2.99134505		2.86549976		6.47604426		0.00000000		0.00000000		 0.00032012
O		0.00000000		11.34508710		2.11794588		0.00000000		-0.00045066		-0.00017097
O		0.00000000		0.11691313		6.13915419		0.00000000		 0.00045066		 0.00017097
O		0.00000000		5.84791325		2.11794588		0.00000000		 0.00045063		-0.00017099
O		0.00000000		5.61408699		6.13915419		0.00000000		-0.00045063		 0.00017099
O		2.99134505		5.61408699		6.24649622		-0.00000000		-0.00045068		-0.00017096
O		2.99134505		5.84791325		2.01060386		-0.00000000		 0.00045068		 0.00017096
O		2.99134505		0.11691313		6.24649622		0.00000000		 0.00045070		-0.00017097
O		2.99134505		11.34508710		2.01060386		0.00000000		-0.00045070		 0.00017097
O		1.55609829		1.40524117		8.20012632		-0.00010052		-0.00005811		-0.00051210
O		4.42659180		10.05675787		0.05697376		 0.00010052		 0.00005811		 0.00051210
O		4.42659180		4.32575895		8.20012632		 0.00010052		 0.00005813		-0.00051210
O		1.55609829		7.13624129		0.05697376		-0.00010052		-0.00005813		 0.00051210
O		4.42659180		7.13624129		0.05697376		 0.00010052		-0.00005813		 0.00051210
O		1.55609829		4.32575895		8.20012632		-0.00010052		 0.00005813		-0.00051210
O		1.55609829		10.05675787		0.05697376		-0.00010052		 0.00005811		 0.00051210
O		4.42659180		1.40524117		8.20012632		 0.00010052		-0.00005811		-0.00051210
O		4.54744334		7.13624129		4.07157598		-0.00010051		-0.00005813		-0.00051209
O		1.43524676		4.32575895		4.18552409		 0.00010051		 0.00005813		 0.00051209
O		1.43524676		10.05675787		4.07157598		 0.00010053		 0.00005811		-0.00051208
O		4.54744334		1.40524117		4.18552409		-0.00010053		-0.00005811		 0.00051208
O		1.43524676		1.40524117		4.18552409		 0.00010053		-0.00005811		 0.00051208
O		4.54744334		10.05675787		4.07157598		-0.00010053		 0.00005811		-0.00051208
O		4.54744334		4.32575895		4.18552409		-0.00010051		 0.00005813		 0.00051209
O		1.43524676		7.13624129		4.07157598		 0.00010051		-0.00005813		-0.00051209
