# total energy = -41273.3910337 eV

CRYSTAL
PRIMVEC
		6.12513507		0.00000000		0.00000000
		0.00000000		11.46200201		0.00000000
		0.00000000		0.00000000		8.25709859
PRIMECORD
   56 1
Mg		0.00000000		0.00000000		0.00000000		0.00000000		0.00000000		0.00000000
Mg		0.00000000		5.73099978		0.00000000		0.00000000		0.00000000		0.00000000
Mg		3.06256815		5.73099978		4.12854991		0.00000000		0.00000000		0.00000000
Mg		3.06256815		0.00000000		4.12854991		0.00000000		0.00000000		0.00000000
Mg		0.00000000		2.86549989		8.00773637		0.00000000		-0.00000001		-0.00028095
Mg		0.00000000		8.59650028		0.24936405		0.00000000		 0.00000001		 0.00028095
Mg		3.06256815		8.59650028		3.87918586		0.00000000		0.00000000		-0.00028558
Mg		3.06256815		2.86549989		4.37791518		0.00000000		-0.00000000		 0.00028558
Mg		1.53128377		1.45452786		2.06427526		-0.00002403		 0.00039012		 0.00000730
Mg		4.59385130		10.00747231		6.19282516		 0.00002403		-0.00039012		-0.00000730
Mg		4.59385130		4.27647192		2.06427526		 0.00002403		-0.00039012		 0.00000731
Mg		1.53128377		7.18552826		6.19282516		-0.00002403		 0.00039012		-0.00000731
Mg		4.59385130		7.18552826		6.19282516		 0.00002403		 0.00039012		-0.00000731
Mg		1.53128377		4.27647192		2.06427526		-0.00002403		-0.00039012		 0.00000731
Mg		1.53128377		10.00747231		6.19282516		-0.00002403		-0.00039012		-0.00000730
Mg		4.59385130		1.45452786		2.06427526		 0.00002403		 0.00039012		 0.00000730
Si		0.00000000		1.37429411		5.09050176		0.00000000		 0.00024658		 0.00014706
Si		0.00000000		10.08770607		3.16659805		0.00000000		-0.00024658		-0.00014706
Si		0.00000000		4.35670629		5.09050176		0.00000000		-0.00024659		 0.00014706
Si		0.00000000		7.10529389		3.16659805		0.00000000		 0.00024659		-0.00014706
Si		3.06256815		7.10529389		0.96195185		0.00000000		 0.00024187		 0.00013665
Si		3.06256815		4.35670629		7.29514796		0.00000000		-0.00024187		-0.00013665
Si		3.06256815		10.08770607		0.96195185		0.00000000		-0.00024185		 0.00013663
Si		3.06256815		1.37429411		7.29514796		0.00000000		 0.00024185		-0.00013663
O		0.00000000		2.86549989		1.80169929		0.00000000		-0.00000001		 0.00034938
O		0.00000000		8.59650028		6.45540113		0.00000000		 0.00000001		-0.00034938
O		3.06256815		8.59650028		5.93024920		0.00000000		 0.00000001		 0.00032473
O		3.06256815		2.86549989		2.32685122		0.00000000		-0.00000001		-0.00032473
O		0.00000000		2.86549989		5.90960627		0.00000000		-0.00000000		-0.00079235
O		0.00000000		8.59650028		2.34749415		0.00000000		0.00000000		 0.00079235
O		3.06256815		8.59650028		1.78105575		0.00000000		 0.00000004		-0.00081082
O		3.06256815		2.86549989		6.47604406		0.00000000		-0.00000004		 0.00081082
O		0.00000000		11.34508727		2.11794614		0.00000000		-0.00086690		-0.00032368
O		0.00000000		0.11691290		6.13915428		0.00000000		 0.00086690		 0.00032368
O		0.00000000		5.84791330		2.11794614		0.00000000		 0.00086692		-0.00032365
O		0.00000000		5.61408688		6.13915428		0.00000000		-0.00086692		 0.00032365
O		3.06256815		5.61408688		6.24649605		0.00000000		-0.00086906		-0.00032093
O		3.06256815		5.84791330		2.01060376		0.00000000		 0.00086906		 0.00032093
O		3.06256815		0.11691290		6.24649605		0.00000000		 0.00086901		-0.00032097
O		3.06256815		11.34508727		2.01060376		0.00000000		-0.00086901		 0.00032097
O		1.59314824		1.40524074		8.20012625		 0.00002001		-0.00011883		-0.00065644
O		4.53198683		10.05675821		0.05697417		-0.00002001		 0.00011883		 0.00065644
O		4.53198683		4.32575904		8.20012625		-0.00002001		 0.00011884		-0.00065645
O		1.59314824		7.13624113		0.05697417		 0.00002001		-0.00011884		 0.00065645
O		4.53198683		7.13624113		0.05697417		-0.00002001		-0.00011884		 0.00065645
O		1.59314824		4.32575904		8.20012625		 0.00002001		 0.00011884		-0.00065645
O		1.59314824		10.05675821		0.05697417		 0.00002001		 0.00011883		 0.00065644
O		4.53198683		1.40524074		8.20012625		-0.00002001		-0.00011883		-0.00065644
O		4.65571517		7.13624113		4.07157635		 0.00002848		-0.00011913		-0.00066322
O		1.46941990		4.32575904		4.18552407		-0.00002848		 0.00011913		 0.00066322
O		1.46941990		10.05675821		4.07157635		-0.00002848		 0.00011916		-0.00066320
O		4.65571517		1.40524074		4.18552407		 0.00002848		-0.00011916		 0.00066320
O		1.46941990		1.40524074		4.18552407		-0.00002848		-0.00011916		 0.00066320
O		4.65571517		10.05675821		4.07157635		 0.00002848		 0.00011916		-0.00066320
O		4.65571517		4.32575904		4.18552407		 0.00002848		 0.00011913		 0.00066322
O		1.46941990		7.13624113		4.07157635		-0.00002848		-0.00011913		-0.00066322
