# total energy = -41271.6685474 eV

CRYSTAL
PRIMVEC
		6.26758005		0.00000000		0.00000000
		0.00000000		11.46199997		0.00000000
		0.00000000		0.00000000		8.25709798
PRIMECORD
   56 1
Mg		0.00000000		0.00000000		0.00000000		0.00000000		0.00000000		0.00000000
Mg		0.00000000		5.73099999		0.00000000		0.00000000		0.00000000		0.00000000
Mg		3.13379002		5.73099999		4.12855025		0.00000000		0.00000000		0.00000000
Mg		3.13379002		0.00000000		4.12855025		0.00000000		0.00000000		0.00000000
Mg		0.00000000		2.86549999		8.00773604		0.00000000		-0.00000000		-0.00057421
Mg		0.00000000		8.59649998		0.24936382		0.00000000		0.00000000		 0.00057421
Mg		3.13379002		8.59649998		3.87918580		0.00000000		 0.00000001		-0.00054700
Mg		3.13379002		2.86549999		4.37791532		0.00000000		-0.00000001		 0.00054700
Mg		1.56689501		1.45452796		2.06427512		-0.00002095		-0.00007503		 0.00000345
Mg		4.70068504		10.00747201		6.19282474		 0.00002095		 0.00007503		-0.00000345
Mg		4.70068504		4.27647203		2.06427512		 0.00002095		 0.00007502		 0.00000345
Mg		1.56689501		7.18552794		6.19282474		-0.00002095		-0.00007502		-0.00000345
Mg		4.70068504		7.18552794		6.19282474		 0.00002095		-0.00007502		-0.00000345
Mg		1.56689501		4.27647203		2.06427512		-0.00002095		 0.00007502		 0.00000345
Mg		1.56689501		10.00747201		6.19282474		-0.00002095		 0.00007503		-0.00000345
Mg		4.70068504		1.45452796		2.06427512		 0.00002095		-0.00007503		 0.00000345
Si		0.00000000		1.37429416		5.09050219		0.00000000		 0.00016064		 0.00040223
Si		0.00000000		10.08770581		3.16659830		0.00000000		-0.00016064		-0.00040223
Si		0.00000000		4.35670583		5.09050219		0.00000000		-0.00016065		 0.00040223
Si		0.00000000		7.10529414		3.16659830		0.00000000		 0.00016065		-0.00040223
Si		3.13379002		7.10529414		0.96195195		-0.00000000		 0.00015855		 0.00039703
Si		3.13379002		4.35670583		7.29514792		-0.00000000		-0.00015855		-0.00039703
Si		3.13379002		10.08770581		0.96195195		0.00000000		-0.00015856		 0.00039703
Si		3.13379002		1.37429416		7.29514792		0.00000000		 0.00015856		-0.00039703
O		0.00000000		2.86549999		1.80169924		-0.00000000		 0.00000001		 0.00066911
O		0.00000000		8.59649998		6.45540125		-0.00000000		-0.00000001		-0.00066911
O		3.13379002		8.59649998		5.93024886		0.00000000		 0.00000001		 0.00066992
O		3.13379002		2.86549999		2.32685100		0.00000000		-0.00000001		-0.00066992
O		0.00000000		2.86549999		5.90960596		-0.00000000		-0.00000002		-0.00092602
O		0.00000000		8.59649998		2.34749390		-0.00000000		 0.00000002		 0.00092602
O		3.13379002		8.59649998		1.78105572		0.00000000		0.00000000		-0.00092160
O		3.13379002		2.86549999		6.47604415		0.00000000		-0.00000000		 0.00092160
O		0.00000000		11.34508704		2.11794629		0.00000000		-0.00038961		-0.00010052
O		0.00000000		0.11691293		6.13915420		0.00000000		 0.00038961		 0.00010052
O		0.00000000		5.84791292		2.11794629		0.00000000		 0.00038960		-0.00010052
O		0.00000000		5.61408705		6.13915420		0.00000000		-0.00038960		 0.00010052
O		3.13379002		5.61408705		6.24649591		-0.00000000		-0.00038910		-0.00009836
O		3.13379002		5.84791292		2.01060395		-0.00000000		 0.00038910		 0.00009836
O		3.13379002		0.11691293		6.24649591		0.00000000		 0.00038910		-0.00009837
O		3.13379002		11.34508704		2.01060395		0.00000000		-0.00038910		 0.00009837
O		1.63019820		1.40524096		8.20012631		 0.00013243		 0.00005326		-0.00010498
O		4.63738310		10.05675838		0.05697418		-0.00013243		-0.00005326		 0.00010498
O		4.63738310		4.32575902		8.20012631		-0.00013244		-0.00005327		-0.00010498
O		1.63019820		7.13624095		0.05697418		 0.00013244		 0.00005327		 0.00010498
O		4.63738310		7.13624095		0.05697418		-0.00013244		 0.00005327		 0.00010498
O		1.63019820		4.32575902		8.20012631		 0.00013244		-0.00005327		-0.00010498
O		1.63019820		10.05675838		0.05697418		 0.00013243		-0.00005326		 0.00010498
O		4.63738310		1.40524096		8.20012631		-0.00013243		 0.00005326		-0.00010498
O		4.76398822		7.13624095		4.07157606		 0.00014227		 0.00005338		-0.00011099
O		1.50359183		4.32575902		4.18552380		-0.00014227		-0.00005338		 0.00011099
O		1.50359183		10.05675838		4.07157606		-0.00014229		-0.00005337		-0.00011099
O		4.76398822		1.40524096		4.18552380		 0.00014229		 0.00005337		 0.00011099
O		1.50359183		1.40524096		4.18552380		-0.00014229		 0.00005337		 0.00011099
O		4.76398822		10.05675838		4.07157606		 0.00014229		-0.00005337		-0.00011099
O		4.76398822		4.32575902		4.18552380		 0.00014227		-0.00005338		 0.00011099
O		1.50359183		7.13624095		4.07157606		-0.00014227		 0.00005338		-0.00011099
