# total energy = -9073.4741973 eV

CRYSTAL
PRIMVEC
		5.62858238		0.00005624		-0.00728617
		0.00006136		5.57992101		0.00000000
		-0.01618807		0.00000000		7.96357668
PRIMECORD
   28 1
Mg		4.21628687		2.83008913		1.97961237		-0.00021223		 0.00019737		 0.00025996
Mg		1.39613658		0.04009898		5.97667814		 0.00021706		 0.00019973		-0.00025943
Si		1.43081311		0.05371414		1.98453066		-0.00011802		-0.00005308		-0.00006819
Si		4.18161545		2.84369918		5.97175729		 0.00010767		-0.00003465		 0.00007957
O		1.84796998		5.44445607		3.77748267		-0.00057812		-0.00025261		-0.00072403
O		3.76457567		2.65460498		4.17881807		 0.00035156		-0.00058153		 0.00068069
O		4.63014937		2.94812045		7.75929811		 0.00017942		-0.00002109		-0.00009303
O		0.98218153		0.15822642		0.19698781		 0.00016222		-0.00041579		 0.00011431
O		5.06213168		4.39857196		5.65992261		 0.00030388		-0.00022693		-0.00017747
O		0.55026263		1.60848925		2.29637812		-0.00007108		 0.00004779		 0.00014674
O		2.58823132		3.81786235		6.24100292		-0.00067510		 0.00025940		-0.00003039
O		3.02430206		1.02783589		1.71529577		 0.00036862		 0.00052286		-0.00000157
O		5.49338792		4.67120603		2.30692236		-0.00003868		-0.00019229		 0.00021383
O		0.11907285		1.88119491		5.64937531		 0.00005743		-0.00019126		-0.00022695
O		2.38454638		4.10136585		1.60806128		 0.00049179		-0.00003959		-0.00023160
O		3.22790826		1.31141507		6.34823792		-0.00049747		-0.00003179		 0.00019666
H		2.39521486		4.64209613		3.85781151		 0.00014060		 0.00012987		 0.00044356
H		3.21718814		1.85206149		4.09847337		 0.00007754		 0.00044185		-0.00041372
H		5.25367505		3.69580549		7.78360476		-0.00030323		-0.00022126		 0.00017474
H		0.35885782		0.90569109		0.17269035		-0.00001624		 0.00015362		-0.00018618
H		1.89222080		3.13728316		6.14991048		 0.00039498		 0.00040497		-0.00008895
H		3.72013414		0.34741316		1.80636929		-0.00012723		 0.00014424		 0.00012352
H		4.43463005		5.13767926		5.78029828		-0.00038169		-0.00033838		-0.00005123
H		1.17790538		2.34774791		2.17597893		 0.00016544		-0.00058338		 0.00009191
H		5.42043983		4.70778822		3.27838581		 0.00053930		 0.00012114		 0.00058833
H		0.19202810		1.91777556		4.67790573		-0.00054221		 0.00012172		-0.00057865
H		2.39056807		4.01517535		0.63596279		-0.00026771		 0.00021952		-0.00032731
H		3.22188196		1.22522661		7.32032261		 0.00027152		 0.00021957		 0.00034488
