# total energy = -9075.51262428 eV

CRYSTAL
PRIMVEC
		5.28080465		-0.00001534		0.00598744
		-0.00001534		5.29605192		0.00000000
		0.00435636		0.00000000		7.50165922
PRIMECORD
   28 1
Mg		3.97558615		2.68942877		1.88746613		-0.00011145		 0.00031064		-0.00026187
Mg		1.30956617		0.04140946		5.62017900		 0.00011031		 0.00031045		 0.00026184
Si		1.33435346		0.04497790		1.86980088		 0.00001435		 0.00015978		 0.00001239
Si		3.95079784		2.69299721		5.63784476		-0.00001170		 0.00015858		-0.00001544
O		1.89633122		5.12772048		3.58728761		 0.00010585		-0.00025289		-0.00037945
O		3.38879400		2.47966947		3.92035495		-0.00005918		-0.00017497		 0.00038926
O		4.53809465		2.84557109		7.34724053		 0.00007497		-0.00002990		-0.00014720
O		0.74707659		0.19752621		0.16040664		-0.00014454		 0.00007426		 0.00013960
O		4.70708926		4.27182025		5.21771973		 0.00001159		 0.00025816		 0.00000679
O		0.57806306		1.62381474		2.28992283		-0.00004060		 0.00022434		 0.00000180
O		2.35828601		3.55156903		6.05240111		 0.00021479		-0.00002546		 0.00036173
O		2.92684893		0.90355023		1.45524095		-0.00017033		-0.00005677		-0.00035081
O		5.03897036		4.49434901		2.32028851		 0.00068024		 0.00050375		-0.00004058
O		0.24617378		1.84633584		5.18735405		-0.00068674		 0.00050388		 0.00004740
O		2.13203030		3.76976802		1.42180639		 0.00018810		-0.00056061		 0.00002782
O		3.15311537		1.12173951		6.08583772		-0.00018541		-0.00056115		-0.00002636
H		2.38985991		4.28667432		3.65650314		 0.00003238		 0.00016811		 0.00023786
H		2.89529548		1.63866728		3.85114352		-0.00007652		 0.00009582		-0.00024380
H		5.06561932		3.66725394		7.37957475		 0.00000718		-0.00022199		-0.00004681
H		0.21950948		1.01926787		0.12806935		 0.00005684		-0.00031809		 0.00005035
H		1.65481189		2.90219305		5.81354622		-0.00018191		-0.00048104		-0.00012917
H		3.63034912		0.25415329		1.69410197		 0.00014695		-0.00044876		 0.00011773
H		4.09963149		5.00826414		5.47606116		 0.00007089		-0.00006466		 0.00014759
H		1.18550089		2.36023768		2.03158652		-0.00004570		-0.00003552		-0.00015779
H		4.96691962		4.52287449		3.30068148		-0.00021951		-0.00021060		-0.00015082
H		0.31822248		1.87486029		4.20696518		 0.00022035		-0.00021054		 0.00014553
H		2.16717111		3.69128858		0.43765069		 0.00039204		 0.00044305		 0.00004210
H		3.11797610		1.04326058		7.06999392		-0.00039327		 0.00044216		-0.00003968
