# total energy = -9075.27095705 eV

CRYSTAL
PRIMVEC
		4.94486886		-0.00001023		0.00623798
		-0.00001023		5.01540408		0.00000000
		0.00515912		0.00000000		7.11871359
PRIMECORD
   28 1
Mg		3.72105143		2.54869172		1.79490981		-0.00015183		-0.00008286		 0.00020952
Mg		1.22897298		0.04099275		5.33003920		 0.00015129		-0.00008262		-0.00020979
Si		1.24482921		0.03906511		1.77602100		-0.00010461		-0.00034448		 0.00034904
Si		3.70519468		2.54676459		5.34892853		 0.00010599		-0.00034551		-0.00035060
O		1.88520256		4.81801694		3.42131536		-0.00009185		-0.00016507		 0.00025166
O		3.06480497		2.31029496		3.70363109		 0.00012045		-0.00010596		-0.00024324
O		4.35816210		2.74300946		6.99189848		 0.00003968		 0.00053089		-0.00030032
O		0.59187099		0.23529566		0.13305207		-0.00007139		 0.00059214		 0.00029429
O		4.38208937		4.10756600		4.87255071		 0.00000746		 0.00018052		-0.00030902
O		0.56793248		1.59987214		2.25239728		-0.00001725		 0.00017049		 0.00031171
O		2.14601054		3.32339336		5.83513270		 0.00066172		-0.00043153		-0.00028872
O		2.80400568		0.81569183		1.28981529		-0.00064426		-0.00044010		 0.00029250
O		4.64578063		4.28543541		2.27725871		 0.00046706		 0.00002987		 0.00035488
O		0.30423968		1.77773951		4.84768928		-0.00047319		 0.00003054		-0.00035121
O		1.94813715		3.49570381		1.28783601		 0.00069929		 0.00035700		-0.00021318
O		3.00188265		0.98799870		5.83711301		-0.00069644		 0.00035673		 0.00021169
H		2.30439240		3.93334376		3.49746988		-0.00038969		-0.00027321		 0.00000715
H		2.64563456		1.42565502		3.62748016		 0.00036359		-0.00032444		-0.00001171
H		4.79520535		3.62062349		7.03813573		-0.00039471		 0.00026424		 0.00065313
H		0.15480677		1.11294395		0.08681226		 0.00042322		 0.00021092		-0.00065014
H		1.43983876		2.69311788		5.50080908		-0.00024411		 0.00042661		 0.00013181
H		3.51018820		0.18540868		1.62414096		 0.00023319		 0.00043631		-0.00013655
H		3.80125602		4.85174908		5.22874358		 0.00016843		 0.00011138		-0.00006125
H		1.14875815		2.34404807		1.89620646		-0.00016186		 0.00011936		 0.00005749
H		4.55322943		4.31130770		3.27302984		-0.00024157		-0.00052622		-0.00021728
H		0.39678833		1.80361180		3.85191969		 0.00024229		-0.00052641		 0.00021460
H		1.99364169		3.40689284		0.28317524		 0.00002172		-0.00008396		 0.00018235
H		2.95637964		0.89918774		6.84177224		-0.00002260		-0.00008466		-0.00017883
