# total energy = -20638.8583332 eV	

CRYSTAL	
PRIMVEC	
		10.35424732		0.00000000		0.00012242	
		0.00000000		6.05811741		0.00000000	
		0.00006121		0.00000000		4.80663906	
PRIMCOORD
   28 1	
Mg		0.00000000		0.00000000		0.00000000		-0.00000012		-0.00000003		-0.00000000	
Mg		5.17715324		0.00000000		2.40338380		 0.00000009		 0.00000003		 0.00000002	
Mg		0.00000000		3.02905973		0.00000000		-0.00000012		 0.00000002		-0.00000000	
Mg		5.17715324		3.02905973		2.40338380		 0.00000009		-0.00000005		 0.00000003	
Mg		2.86830795		1.51452986		4.76917336		 0.00013797		 0.00009164		 0.00015827	
Mg		7.48599854		4.54358959		0.03759424		-0.00013783		-0.00009165		-0.00015828	
Mg		2.30939923		4.54358959		2.36581507		-0.00018601		-0.00014464		 0.00015545	
Mg		8.04490624		1.51452986		2.44095253		 0.00018587		 0.00014464		-0.00015542	
Si		0.96932878		1.51452986		2.04430744		 0.00005016		 0.00000067		-0.00004767	
Si		9.38497669		4.54358959		2.76246016		-0.00005039		-0.00000069		 0.00004764	
Si		4.20781222		4.54358959		4.44767593		-0.00004626		-0.00000073		-0.00004841	
Si		6.14649426		1.51452986		0.35909167		 0.00004649		 0.00000071		 0.00004819	
O		0.94859135		1.51452986		3.67664522		-0.00008582		 0.00000827		-0.00018514	
O		9.40571412		4.54358959		1.13012136		 0.00008625		-0.00000827		 0.00018509	
O		4.22864146		4.54358959		1.27336547		 0.00008505		-0.00000810		-0.00018703	
O		6.12566502		1.51452986		3.53340212		-0.00008550		 0.00000809		 0.00018716	
O		4.63112789		1.51452986		1.06860890		 0.00006686		 0.00000786		 0.00004259	
O		5.72317860		4.54358959		3.73815870		-0.00006709		-0.00000786		-0.00004266	
O		0.54612839		4.54358959		3.47182947		-0.00006913		-0.00000814		 0.00003802	
O		9.80817809		1.51452986		1.33493710		 0.00006963		 0.00000812		-0.00003800	
O		1.68454452		0.20264897		1.33291008		-0.00019871		 0.00002455		-0.00005995	
O		8.66976197		5.85547048		3.47385751		 0.00019889		-0.00002425		 0.00006000	
O		3.49266381		5.85546334		3.73625410		 0.00020067		-0.00002542		-0.00005718	
O		6.86164267		0.20265713		1.07051248		-0.00020097		 0.00002549		 0.00005722	
O		8.66976197		3.23170869		3.47385751		 0.00019921		 0.00002107		 0.00006016	
O		1.68454452		2.82641076		1.33291008		-0.00019901		-0.00002128		-0.00006013	
O		6.86164267		2.82640260		1.07051248		-0.00020183		-0.00002239		 0.00005721	
O		3.49266381		3.23171685		3.73625410		 0.00020158		 0.00002234		-0.00005717	
