# total energy = -20638.6866515 eV	

CRYSTAL	
PRIMVEC	
		10.46518765		0.00000000		0.00020403	
		0.00000000		6.10586001		0.00000000	
		0.00009181		0.00000000		4.83293829	
PRIMCOORD
   28 1	
Mg		0.00000000		0.00000000		0.00000000		-0.00000009		-0.00000000		 0.00000004	
Mg		5.23264381		0.00000000		2.41657116		 0.00000007		-0.00000004		 0.00000002	
Mg		0.00000000		3.05292898		0.00000000		-0.00000009		-0.00000000		 0.00000002	
Mg		5.23264381		3.05292898		2.41657116		 0.00000007		 0.00000003		 0.00000001	
Mg		2.90595727		1.52646449		4.79866870		 0.00000894		 0.00011280		 0.00025114	
Mg		7.55933035		4.57939348		0.03447260		-0.00000878		-0.00011279		-0.00025113	
Mg		2.32756488		4.57939348		2.38214140		-0.00008173		-0.00013719		 0.00023777	
Mg		8.13772376		1.52646449		2.45099990		 0.00008163		 0.00013719		-0.00023778	
Si		0.97737259		1.52646449		2.05353359		-0.00006485		 0.00000065		-0.00002542	
Si		9.48791504		4.57939348		2.77960771		 0.00006421		-0.00000066		 0.00002528	
Si		4.25529469		4.57939348		4.47007925		 0.00006895		-0.00000072		-0.00002397	
Si		6.20999294		1.52646449		0.36306307		-0.00006829		 0.00000070		 0.00002381	
O		0.95651683		1.52646449		3.69067420		 0.00002932		 0.00001140		-0.00030806	
O		9.50877080		4.57939348		1.14246608		-0.00002894		-0.00001140		 0.00030813	
O		4.27622390		4.57939348		1.27427442		-0.00002796		-0.00001116		-0.00030666	
O		6.18906475		1.52646449		3.55886688		 0.00002765		 0.00001115		 0.00030669	
O		4.69105097		1.52646449		1.07500416		-0.00002256		 0.00001100		-0.00013203	
O		5.77423768		4.57939348		3.75813714		 0.00002170		-0.00001099		 0.00013212	
O		0.54168058		4.57939348		3.49132947		 0.00001890		-0.00001132		-0.00013782	
O		9.92360705		1.52646449		1.34181183		-0.00001830		 0.00001131		 0.00013789	
O		1.69554572		0.21057546		1.34383681		 0.00001537		 0.00001499		 0.00021218	
O		8.76974293		5.89528251		3.48930449		-0.00001517		-0.00001498		-0.00021217	
O		3.53720419		5.89525700		3.76034473		-0.00000229		-0.00001143		 0.00021278	
O		6.92808344		0.21060096		1.07279760		 0.00000214		 0.00001140		-0.00021282	
O		8.76974191		3.26350546		3.48930449		-0.00001492		 0.00000433		-0.00021207	
O		1.69554572		2.84235352		1.34383681		 0.00001513		-0.00000434		 0.00021207	
O		6.92808344		2.84232802		1.07279760		 0.00000135		-0.00000082		-0.00021283	
O		3.53720419		3.26352995		3.76034473		-0.00000146		 0.00000090		 0.00021279	
