# total energy = -20637.7592957 eV	

CRYSTAL	
PRIMVEC	
		10.75645830		0.00000000		0.00067329	
		0.00000000		6.22340065		0.00000000	
		0.00031624		0.00000000		4.90316480	
PRIMCOORD
   28 1	
Mg		0.00000000		0.00000000		0.00000000		-0.00000011		-0.00000001		 0.00000002	
Mg		5.37839033		0.00000000		2.45191803		 0.00000015		0.00000000		-0.00000001	
Mg		0.00000000		3.11169829		0.00000000		-0.00000013		 0.00000001		 0.00000001	
Mg		5.37839033		3.11169829		2.45191803		 0.00000013		 0.00000002		-0.00000001	
Mg		3.01037380		1.55584965		4.88760765		-0.00003378		 0.00020989		 0.00004455	
Mg		7.74640687		4.66754794		0.01622840		 0.00003376		-0.00020988		-0.00004450	
Mg		2.36887039		4.66754794		2.43448178		 0.00031568		-0.00018789		 0.00022617	
Mg		8.38790926		1.55584965		2.46935428		-0.00031569		 0.00018790		-0.00022616	
Si		0.99762239		1.55584965		2.07864436		 0.00011937		 0.00000036		 0.00037618	
Si		9.75915726		4.66754794		2.82519067		-0.00011976		-0.00000035		-0.00037626	
Si		4.38105665		4.66754794		4.53031959		-0.00016400		-0.00000040		 0.00037281	
Si		6.37572402		1.55584965		0.37351544		 0.00016433		 0.00000039		-0.00037286	
O		0.96897683		1.55584965		3.72548855		-0.00019795		 0.00002082		 0.00068615	
O		9.78780180		4.66754794		1.17834648		 0.00019833		-0.00002081		-0.00068614	
O		4.40885753		4.66754794		1.27408263		 0.00024956		-0.00002084		 0.00068264	
O		6.34792314		1.55584965		3.62975240		-0.00024991		 0.00002086		-0.00068243	
O		4.84960740		1.55584965		1.09539066		 0.00031260		 0.00002066		 0.00021077	
O		5.90717225		4.66754794		3.80844539		-0.00031275		-0.00002067		-0.00021093	
O		0.52867276		4.66754794		3.54648849		-0.00020744		-0.00002082		 0.00019372	
O		10.22810689		1.55584965		1.35734654		 0.00020742		 0.00002081		-0.00019386	
O		1.72629685		0.23091095		1.37687816		 0.00006927		 0.00001315		-0.00000479	
O		9.03048280		5.99248562		3.52695687		-0.00006893		-0.00001311		 0.00000481	
O		3.65272291		5.99265394		3.82864520		-0.00006963		-0.00001393		-0.00000770	
O		7.10405775		0.23074365		1.07518983		 0.00006940		 0.00001378		 0.00000775	
O		9.03048280		3.34260924		3.52695687		-0.00006889		-0.00001945		 0.00000490	
O		1.72629685		2.88078733		1.37687816		 0.00006924		 0.00001938		-0.00000487	
O		7.10405775		2.88095566		1.07518983		 0.00006884		 0.00001853		 0.00000792	
O		3.65272291		3.34244193		3.82864520		-0.00006910		-0.00001840		-0.00000787	
