# total energy = -12344.0739617 eV	

CRYSTAL	
PRIMVEC	
		4.44490009		0.00000000		0.00000000	
		0.00000000		4.43156095		0.00000000	
		0.00000000		0.00000000		6.45439942	
PRIMCOORD
   20 1	
O		0.47515982		2.10720712		1.61360008		 0.00013691		 0.00046101		0.00000000	
O		3.96974027		2.32435294		4.84080023		-0.00013691		-0.00046101		0.00000000	
O		2.69760987		0.10857291		4.84080023		 0.00013691		-0.00046101		0.00000000	
O		1.74729023		4.32298715		1.61360008		-0.00013691		 0.00046101		0.00000000	
O		0.83697513		0.85928009		3.62801813		 0.00008749		-0.00009570		-0.00012765	
O		3.60792496		3.57228086		2.82638218		-0.00008749		 0.00009570		 0.00012765	
O		3.05942518		1.35650083		2.82638218		 0.00008749		 0.00009570		 0.00012765	
O		1.38547491		3.07506011		3.62801813		-0.00008749		-0.00009570		-0.00012765	
O		3.60792496		3.57228086		0.40081798		-0.00008749		 0.00009570		-0.00012765	
O		0.83697513		0.85928009		6.05358233		 0.00008749		-0.00009570		 0.00012765	
O		1.38547491		3.07506011		6.05358233		-0.00008749		-0.00009570		 0.00012765	
O		3.05942518		1.35650083		0.40081798		 0.00008749		 0.00009570		-0.00012765	
Mg		2.30334723		2.57783892		1.61360008		-0.00011410		-0.00015307		0.00000000	
Mg		2.14155286		1.85372114		4.84080023		 0.00011410		 0.00015307		0.00000000	
Mg		0.08089718		4.06950206		4.84080023		-0.00011410		 0.00015307		0.00000000	
Mg		4.36400291		0.36205889		1.61360008		 0.00011410		-0.00015307		0.00000000	
Si		2.22245005		0.00000000		3.22720015		0.00000000		0.00000000		0.00000000	
Si		0.00000000		2.21578003		3.22720015		0.00000000		0.00000000		0.00000000	
Si		2.22245005		0.00000000		0.00000000		0.00000000		0.00000000		0.00000000	
Si		0.00000000		2.21578003		0.00000000		0.00000000		0.00000000		0.00000000	
