# total energy = -38095.01304 eV

CRYSTAL
PRIMVEC
		5.69209984		0.00000000		0.00000000
		0.00000000		12.60599753		0.00000000
		0.00000000		0.00000000		8.25299833
PRIMECORD
   58 1
O		1.53572911		1.54927687		8.19440386		 0.00044132		-0.00024394		-0.00013303
O		4.15637074		11.05672294		0.05859618		-0.00044132		 0.00024394		 0.00013303
O		4.15637074		4.75372189		8.19440386		-0.00044132		 0.00024394		-0.00013303
O		1.53572911		7.85227792		0.05859618		 0.00044132		-0.00024394		 0.00013303
O		1.53572911		11.05672294		0.05859618		 0.00044132		 0.00024394		 0.00013303
O		4.15637074		1.54927687		8.19440386		-0.00044132		-0.00024394		-0.00013303
O		4.15637074		7.85227792		0.05859618		-0.00044132		-0.00024394		 0.00013303
O		1.53572911		4.75372189		8.19440386		 0.00044132		 0.00024394		-0.00013303
O		2.84604992		6.17063695		6.23596689		0.00000000		 0.00016048		 0.00040413
O		2.84604992		6.43536286		2.01703315		0.00000000		-0.00016048		-0.00040413
O		2.84604992		0.13236295		6.23596689		0.00000000		-0.00016048		 0.00040413
O		2.84604992		12.47363686		2.01703315		0.00000000		 0.00016048		-0.00040413
O		0.00000000		3.15149995		5.91574985		0.00000000		0.00000000		-0.00046743
O		0.00000000		9.45449986		2.33725019		0.00000000		0.00000000		 0.00046743
O		0.00000000		3.15149995		1.80493071		0.00000000		0.00000000		 0.00066139
O		0.00000000		9.45449986		6.44806876		0.00000000		0.00000000		-0.00066139
O		2.84604992		9.45449986		5.93143101		0.00000000		0.00000000		 0.00017273
O		2.84604992		3.15149995		2.32156903		0.00000000		0.00000000		-0.00017273
O		2.84604992		9.45449986		1.78925011		0.00000000		0.00000000		 0.00008960
O		2.84604992		3.15149995		6.46374993		0.00000000		0.00000000		-0.00008960
O		0.00000000		12.47363686		2.10946716		0.00000000		 0.00037538		-0.00002540
O		0.00000000		0.13236295		6.14353402		0.00000000		-0.00037538		 0.00002540
O		0.00000000		6.43536286		2.10946716		0.00000000		-0.00037538		-0.00002540
O		0.00000000		6.17063695		6.14353402		0.00000000		 0.00037538		 0.00002540
O		4.38177903		7.85227792		4.06790412		-0.00022419		 0.00021207		-0.00011334
O		1.31032081		4.75372189		4.18509592		 0.00022419		-0.00021207		 0.00011334
O		1.31032081		11.05672294		4.06790412		 0.00022419		-0.00021207		-0.00011334
O		4.38177903		1.54927801		4.18509592		-0.00022419		 0.00021207		 0.00011334
O		4.38177903		4.75372189		4.18509592		-0.00022419		-0.00021207		 0.00011334
O		1.31032081		7.85227792		4.06790412		 0.00022419		 0.00021207		-0.00011334
O		1.31032081		1.54927801		4.18509592		 0.00022419		 0.00021207		 0.00011334
O		4.38177903		11.05672294		4.06790412		-0.00022419		-0.00021207		-0.00011334
H		2.84604992		9.45449986		4.88165013		0.00000000		0.00000000		 0.00008111
H		2.84604992		3.15149995		3.37135105		0.00000000		0.00000000		-0.00008111
H		0.00000000		3.15149995		2.85471273		0.00000000		0.00000000		 0.00048828
H		0.00000000		9.45449986		5.39828674		0.00000000		0.00000000		-0.00048828
Mg		2.84604992		6.30299991		4.12649974		0.00000000		0.00000000		0.00000000
Mg		2.84604992		0.00000000		4.12649974		0.00000000		0.00000000		0.00000000
Mg		0.00000000		0.00000000		0.00000000		0.00000000		0.00000000		0.00000000
Mg		0.00000000		6.30299991		0.00000000		0.00000000		0.00000000		0.00000000
Mg		1.42302496		1.59339805		2.06325015		-0.00053182		 0.00011071		 0.00051600
Mg		4.26907488		11.01260176		6.18974989		 0.00053182		-0.00011071		-0.00051600
Mg		4.26907488		4.70960186		2.06325015		 0.00053182		-0.00011071		 0.00051600
Mg		1.42302496		7.89639795		6.18974989		-0.00053182		 0.00011071		-0.00051600
Mg		1.42302496		11.01260176		6.18974989		-0.00053182		-0.00011071		-0.00051600
Mg		4.26907488		1.59339805		2.06325015		 0.00053182		 0.00011071		 0.00051600
Mg		4.26907488		7.89639795		6.18974989		 0.00053182		 0.00011071		-0.00051600
Mg		1.42302496		4.70960186		2.06325015		-0.00053182		-0.00011071		 0.00051600
Mg		0.00000000		3.15149995		8.00623499		0.00000000		0.00000000		-0.00011462
Mg		0.00000000		9.45449986		0.24676505		0.00000000		0.00000000		 0.00011462
Si		2.84604992		7.81698064		0.96230014		0.00000000		 0.00018582		 0.00036638
Si		2.84604992		4.78901860		7.29070104		0.00000000		-0.00018582		-0.00036638
Si		2.84604992		11.09201851		0.96230014		0.00000000		-0.00018582		 0.00036638
Si		2.84604992		1.51398073		7.29070104		0.00000000		 0.00018582		-0.00036638
Si		0.00000000		1.51398073		5.08879987		0.00000000		-0.00042002		-0.00018770
Si		0.00000000		11.09201851		3.16420017		0.00000000		 0.00042002		 0.00018770
Si		0.00000000		4.78901974		5.08879987		0.00000000		 0.00042002		-0.00018770
Si		0.00000000		7.81698064		3.16420017		0.00000000		-0.00042002		 0.00018770
