# total energy = -38094.0331529 eV

CRYSTAL
PRIMVEC
		5.69209984		0.00000000		0.00000000
		0.00000000		10.60050000		0.00000000
		0.00000000		0.00000000		8.25299833
PRIMECORD
   58 1
O		1.53572911		1.30280098		8.19440386		-0.00000180		 0.00041588		-0.00009384
O		4.15637074		9.29769788		0.05859618		 0.00000180		-0.00041588		 0.00009384
O		4.15637074		3.99744788		8.19440386		 0.00000180		-0.00041588		-0.00009384
O		1.53572911		6.60305155		0.05859618		-0.00000180		 0.00041588		 0.00009384
O		1.53572911		9.29769788		0.05859618		-0.00000180		-0.00041588		 0.00009384
O		4.15637074		1.30280098		8.19440386		 0.00000180		 0.00041588		-0.00009384
O		4.15637074		6.60305155		0.05859618		 0.00000180		 0.00041588		 0.00009384
O		1.53572911		3.99744788		8.19440386		-0.00000180		-0.00041588		-0.00009384
O		2.84604992		5.18894497		6.23596689		0.00000000		 0.00017501		-0.00015541
O		2.84604992		5.41155503		2.01703315		-0.00000000		-0.00017501		 0.00015541
O		2.84604992		0.11130503		6.23596689		-0.00000000		-0.00017501		-0.00015541
O		2.84604992		10.48919497		2.01703315		0.00000000		 0.00017501		 0.00015541
O		0.00000000		2.65012500		5.91574985		0.00000000		0.00000000		-0.00023147
O		0.00000000		7.95037500		2.33725019		0.00000000		0.00000000		 0.00023147
O		0.00000000		2.65012500		1.80493071		0.00000000		0.00000000		 0.00007582
O		0.00000000		7.95037500		6.44806876		0.00000000		0.00000000		-0.00007582
O		2.84604992		7.95037500		5.93143101		0.00000000		0.00000000		 0.00015460
O		2.84604992		2.65012500		2.32156903		0.00000000		0.00000000		-0.00015460
O		2.84604992		7.95037500		1.78925011		0.00000000		0.00000000		 0.00040625
O		2.84604992		2.65012500		6.46374993		0.00000000		0.00000000		-0.00040625
O		0.00000000		10.48919497		2.10946716		0.00000000		-0.00014393		 0.00006425
O		0.00000000		0.11130503		6.14353402		0.00000000		 0.00014393		-0.00006425
O		0.00000000		5.41155503		2.10946716		-0.00000000		 0.00014393		 0.00006425
O		0.00000000		5.18894497		6.14353402		-0.00000000		-0.00014393		-0.00006425
O		4.38177903		6.60305155		4.06790412		-0.00043578		-0.00005104		-0.00003906
O		1.31032081		3.99744788		4.18509592		 0.00043578		 0.00005104		 0.00003906
O		1.31032081		9.29769788		4.06790412		 0.00043578		 0.00005104		-0.00003906
O		4.38177903		1.30280212		4.18509592		-0.00043578		-0.00005104		 0.00003906
O		4.38177903		3.99744788		4.18509592		-0.00043578		 0.00005104		 0.00003906
O		1.31032081		6.60305155		4.06790412		 0.00043578		-0.00005104		-0.00003906
O		1.31032081		1.30280212		4.18509592		 0.00043578		-0.00005104		 0.00003906
O		4.38177903		9.29769788		4.06790412		-0.00043578		 0.00005104		-0.00003906
H		2.84604992		7.95037500		4.88165013		0.00000000		0.00000000		 0.00063601
H		2.84604992		2.65012500		3.37135105		0.00000000		0.00000000		-0.00063601
H		0.00000000		2.65012500		2.85471273		0.00000000		0.00000000		 0.00008212
H		0.00000000		7.95037500		5.39828674		0.00000000		0.00000000		-0.00008212
Mg		2.84604992		5.30025000		4.12649974		0.00000000		0.00000000		0.00000000
Mg		2.84604992		0.00000000		4.12649974		0.00000000		0.00000000		0.00000000
Mg		0.00000000		0.00000000		0.00000000		0.00000000		0.00000000		0.00000000
Mg		0.00000000		5.30025000		0.00000000		0.00000000		0.00000000		0.00000000
Mg		1.42302496		1.33990323		2.06325015		-0.00003211		-0.00000946		-0.00009435
Mg		4.26907488		9.26059677		6.18974989		 0.00003211		 0.00000946		 0.00009435
Mg		4.26907488		3.96034677		2.06325015		 0.00003211		 0.00000946		-0.00009435
Mg		1.42302496		6.64015266		6.18974989		-0.00003211		-0.00000946		 0.00009435
Mg		1.42302496		9.26059677		6.18974989		-0.00003211		 0.00000946		 0.00009435
Mg		4.26907488		1.33990323		2.06325015		 0.00003211		-0.00000946		-0.00009435
Mg		4.26907488		6.64015266		6.18974989		 0.00003211		-0.00000946		 0.00009435
Mg		1.42302496		3.96034677		2.06325015		-0.00003211		 0.00000946		-0.00009435
Mg		0.00000000		2.65012500		8.00623499		0.00000000		0.00000000		 0.00038957
Mg		0.00000000		7.95037500		0.24676505		0.00000000		0.00000000		-0.00038957
Si		2.84604992		6.57337009		0.96230014		0.00000000		-0.00013820		 0.00030933
Si		2.84604992		4.02712990		7.29070104		0.00000000		 0.00013820		-0.00030933
Si		2.84604992		9.32737990		0.96230014		0.00000000		 0.00013820		 0.00030933
Si		2.84604992		1.27312010		7.29070104		0.00000000		-0.00013820		-0.00030933
Si		0.00000000		1.27312010		5.08879987		0.00000000		-0.00001195		-0.00013370
Si		0.00000000		9.32737990		3.16420017		0.00000000		 0.00001195		 0.00013370
Si		0.00000000		4.02712990		5.08879987		0.00000000		 0.00001195		-0.00013370
Si		0.00000000		6.57337009		3.16420017		0.00000000		-0.00001195		 0.00013370
