# total energy = -38090.6705492 eV

CRYSTAL
PRIMVEC
		5.69209984		0.00000000		0.00000000
		0.00000000		10.31399954		0.00000000
		0.00000000		0.00000000		8.25299833
PRIMECORD
   58 1
O		1.53572911		1.26759079		8.19440386		 0.00010255		 0.00030767		-0.00013992
O		4.15637074		9.04640874		0.05859618		-0.00010255		-0.00030767		 0.00013992
O		4.15637074		3.88940898		8.19440386		-0.00010255		-0.00030767		-0.00013992
O		1.53572911		6.42459056		0.05859618		 0.00010255		 0.00030767		 0.00013992
O		1.53572911		9.04640874		0.05859618		 0.00010255		-0.00030767		 0.00013992
O		4.15637074		1.26759079		8.19440386		-0.00010255		 0.00030767		-0.00013992
O		4.15637074		6.42459056		0.05859618		-0.00010255		 0.00030767		 0.00013992
O		1.53572911		3.88940898		8.19440386		 0.00010255		-0.00030767		-0.00013992
O		2.84604992		5.04870301		6.23596689		0.00000000		 0.00022661		-0.00014969
O		2.84604992		5.26529709		2.01703315		0.00000000		-0.00022661		 0.00014969
O		2.84604992		0.10829675		6.23596689		0.00000000		-0.00022661		-0.00014969
O		2.84604992		10.20570278		2.01703315		0.00000000		 0.00022661		 0.00014969
O		0.00000000		2.57850017		5.91574985		0.00000000		0.00000000		-0.00035601
O		0.00000000		7.73549994		2.33725019		0.00000000		0.00000000		 0.00035601
O		0.00000000		2.57850017		1.80493071		0.00000000		0.00000000		 0.00006564
O		0.00000000		7.73549994		6.44806876		0.00000000		0.00000000		-0.00006564
O		2.84604992		7.73549994		5.93143101		0.00000000		0.00000000		 0.00059260
O		2.84604992		2.57850017		2.32156903		0.00000000		0.00000000		-0.00059260
O		2.84604992		7.73549994		1.78925011		0.00000000		0.00000000		 0.00032808
O		2.84604992		2.57850017		6.46374993		0.00000000		0.00000000		-0.00032808
O		0.00000000		10.20570278		2.10946716		0.00000000		-0.00016393		 0.00003335
O		0.00000000		0.10829675		6.14353402		0.00000000		 0.00016393		-0.00003335
O		0.00000000		5.26529709		2.10946716		0.00000000		 0.00016393		 0.00003335
O		0.00000000		5.04870301		6.14353402		0.00000000		-0.00016393		-0.00003335
O		4.38177903		6.42459056		4.06790412		-0.00036812		-0.00018204		 0.00001727
O		1.31032081		3.88940898		4.18509592		 0.00036812		 0.00018204		-0.00001727
O		1.31032081		9.04640874		4.06790412		 0.00036812		 0.00018204		 0.00001727
O		4.38177903		1.26759079		4.18509592		-0.00036812		-0.00018204		-0.00001727
O		4.38177903		3.88940898		4.18509592		-0.00036812		 0.00018204		-0.00001727
O		1.31032081		6.42459056		4.06790412		 0.00036812		-0.00018204		 0.00001727
O		1.31032081		1.26759079		4.18509592		 0.00036812		-0.00018204		-0.00001727
O		4.38177903		9.04640874		4.06790412		-0.00036812		 0.00018204		 0.00001727
H		2.84604992		7.73549994		4.88165013		0.00000000		0.00000000		 0.00047225
H		2.84604992		2.57850017		3.37135105		0.00000000		0.00000000		-0.00047225
H		0.00000000		2.57850017		2.85471273		0.00000000		0.00000000		-0.00004849
H		0.00000000		7.73549994		5.39828674		0.00000000		0.00000000		 0.00004849
Mg		2.84604992		5.15699977		4.12649974		0.00000000		-0.00000000		0.00000000
Mg		2.84604992		0.00000000		4.12649974		0.00000000		0.00000000		0.00000000
Mg		0.00000000		0.00000000		0.00000000		0.00000000		0.00000000		0.00000000
Mg		0.00000000		5.15699977		0.00000000		0.00000000		-0.00000000		0.00000000
Mg		1.42302496		1.30369009		2.06325015		-0.00000224		-0.00011855		-0.00018722
Mg		4.26907488		9.01031002		6.18974989		 0.00000224		 0.00011855		 0.00018722
Mg		4.26907488		3.85330968		2.06325015		 0.00000224		 0.00011855		-0.00018722
Mg		1.42302496		6.46068986		6.18974989		-0.00000224		-0.00011855		 0.00018722
Mg		1.42302496		9.01031002		6.18974989		-0.00000224		 0.00011855		 0.00018722
Mg		4.26907488		1.30369009		2.06325015		 0.00000224		-0.00011855		-0.00018722
Mg		4.26907488		6.46068986		6.18974989		 0.00000224		-0.00011855		 0.00018722
Mg		1.42302496		3.85330968		2.06325015		-0.00000224		 0.00011855		-0.00018722
Mg		0.00000000		2.57850017		8.00623499		0.00000000		0.00000000		 0.00047374
Mg		0.00000000		7.73549994		0.24676505		0.00000000		0.00000000		-0.00047374
Si		2.84604992		6.39571169		0.96230014		0.00000000		-0.00006313		 0.00040321
Si		2.84604992		3.91828785		7.29070104		0.00000000		 0.00006313		-0.00040321
Si		2.84604992		9.07528761		0.96230014		0.00000000		 0.00006313		 0.00040321
Si		2.84604992		1.23871192		7.29070104		0.00000000		-0.00006313		-0.00040321
Si		0.00000000		1.23871078		5.08879987		0.00000000		-0.00003625		-0.00014331
Si		0.00000000		9.07528761		3.16420017		0.00000000		 0.00003625		 0.00014331
Si		0.00000000		3.91828898		5.08879987		0.00000000		 0.00003625		-0.00014331
Si		0.00000000		6.39571169		3.16420017		-0.00000000		-0.00003625		 0.00014331
