# total energy = -38096.6067174 eV

CRYSTAL
PRIMVEC
		5.69209984		0.00000000		0.00000000
		0.00000000		12.31949707		0.00000000
		0.00000000		0.00000000		8.25299833
PRIMECORD
   58 1
O		1.53572911		1.51406668		8.19440386		 0.00004576		-0.00025566		-0.00007423
O		4.15637074		10.80543267		0.05859618		-0.00004576		 0.00025566		 0.00007423
O		4.15637074		4.64568299		8.19440386		-0.00004576		 0.00025566		-0.00007423
O		1.53572911		7.67381693		0.05859618		 0.00004576		-0.00025566		 0.00007423
O		1.53572911		10.80543267		0.05859618		 0.00004576		 0.00025566		 0.00007423
O		4.15637074		1.51406668		8.19440386		-0.00004576		-0.00025566		-0.00007423
O		4.15637074		7.67381693		0.05859618		-0.00004576		-0.00025566		 0.00007423
O		1.53572911		4.64568299		8.19440386		 0.00004576		 0.00025566		-0.00007423
O		2.84604992		6.03039500		6.23596689		0.00000000		 0.00025457		 0.00025325
O		2.84604992		6.28910492		2.01703315		0.00000000		-0.00025457		-0.00025325
O		2.84604992		0.12935525		6.23596689		0.00000000		-0.00025457		 0.00025325
O		2.84604992		12.19014467		2.01703315		0.00000000		 0.00025457		-0.00025325
O		0.00000000		3.07987512		5.91574985		0.00000000		0.00000000		-0.00041266
O		0.00000000		9.23962480		2.33725019		0.00000000		0.00000000		 0.00041266
O		0.00000000		3.07987512		1.80493071		0.00000000		0.00000000		 0.00049749
O		0.00000000		9.23962480		6.44806876		0.00000000		0.00000000		-0.00049749
O		2.84604992		9.23962480		5.93143101		0.00000000		0.00000000		 0.00038330
O		2.84604992		3.07987512		2.32156903		0.00000000		0.00000000		-0.00038330
O		2.84604992		9.23962480		1.78925011		0.00000000		0.00000000		 0.00025270
O		2.84604992		3.07987512		6.46374993		0.00000000		0.00000000		-0.00025270
O		0.00000000		12.19014467		2.10946716		-0.00000000		 0.00040199		-0.00006458
O		0.00000000		0.12935525		6.14353402		0.00000000		-0.00040199		 0.00006458
O		0.00000000		6.28910492		2.10946716		-0.00000000		-0.00040199		-0.00006458
O		0.00000000		6.03039500		6.14353402		0.00000000		 0.00040199		 0.00006458
O		4.38177903		7.67381693		4.06790412		-0.00059691		 0.00025160		-0.00027122
O		1.31032081		4.64568299		4.18509592		 0.00059691		-0.00025160		 0.00027122
O		1.31032081		10.80543267		4.06790412		 0.00059691		-0.00025160		-0.00027122
O		4.38177903		1.51406668		4.18509592		-0.00059691		 0.00025160		 0.00027122
O		4.38177903		4.64568299		4.18509592		-0.00059691		-0.00025160		 0.00027122
O		1.31032081		7.67381693		4.06790412		 0.00059691		 0.00025160		-0.00027122
O		1.31032081		1.51406668		4.18509592		 0.00059691		 0.00025160		 0.00027122
O		4.38177903		10.80543267		4.06790412		-0.00059691		-0.00025160		-0.00027122
H		2.84604992		9.23962480		4.88165013		0.00000000		0.00000000		 0.00007792
H		2.84604992		3.07987512		3.37135105		0.00000000		0.00000000		-0.00007792
H		0.00000000		3.07987512		2.85471273		0.00000000		0.00000000		 0.00045869
H		0.00000000		9.23962480		5.39828674		0.00000000		0.00000000		-0.00045869
Mg		2.84604992		6.15974967		4.12649974		0.00000000		-0.00000000		0.00000000
Mg		2.84604992		0.00000000		4.12649974		0.00000000		0.00000000		0.00000000
Mg		0.00000000		0.00000000		0.00000000		0.00000000		0.00000000		0.00000000
Mg		0.00000000		6.15974967		0.00000000		0.00000000		0.00000000		0.00000000
Mg		1.42302496		1.55718491		2.06325015		-0.00084151		 0.00024750		 0.00028769
Mg		4.26907488		10.76231444		6.18974989		 0.00084151		-0.00024750		-0.00028769
Mg		4.26907488		4.60256477		2.06325015		 0.00084151		-0.00024750		 0.00028769
Mg		1.42302496		7.71693458		6.18974989		-0.00084151		 0.00024750		-0.00028769
Mg		1.42302496		10.76231444		6.18974989		-0.00084151		-0.00024750		-0.00028769
Mg		4.26907488		1.55718491		2.06325015		 0.00084151		 0.00024750		 0.00028769
Mg		4.26907488		7.71693458		6.18974989		 0.00084151		 0.00024750		-0.00028769
Mg		1.42302496		4.60256477		2.06325015		-0.00084151		-0.00024750		 0.00028769
Mg		0.00000000		3.07987512		8.00623499		0.00000000		0.00000000		 0.00004136
Mg		0.00000000		9.23962480		0.24676505		0.00000000		0.00000000		-0.00004136
Si		2.84604992		7.63932166		0.96230014		0.00000000		 0.00003365		 0.00031214
Si		2.84604992		4.68017769		7.29070104		0.00000000		-0.00003365		-0.00031214
Si		2.84604992		10.83992793		0.96230014		0.00000000		-0.00003365		 0.00031214
Si		2.84604992		1.47957199		7.29070104		0.00000000		 0.00003365		-0.00031214
Si		0.00000000		1.47957199		5.08879987		0.00000000		-0.00029858		-0.00016635
Si		0.00000000		10.83992793		3.16420017		0.00000000		 0.00029858		 0.00016635
Si		0.00000000		4.68017769		5.08879987		0.00000000		 0.00029858		-0.00016635
Si		0.00000000		7.63932166		3.16420017		0.00000000		-0.00029858		 0.00016635
