# total energy = -24714.4610843 eV

CRYSTAL
PRIMVEC
		9.53870002		0.00000000		0.00000000
		0.00000000		8.22709062		0.00000000
		-1.68714803		0.00000000		4.98419015
PRIMECORD
   40 1
Mg		-0.42178796		7.43893931		1.24604801		-0.00000003		 0.00052808		 0.00000011
Mg		-1.26536388		0.78815607		3.73814309		 0.00000003		-0.00052808		-0.00000011
Mg		4.34756205		3.32539209		1.24604801		-0.00000009		 0.00056422		 0.00000018
Mg		3.50398613		4.90170329		3.73814309		 0.00000009		-0.00056422		-0.00000018
Mg		-0.42178796		2.34965844		1.24604801		 0.00000017		-0.00049316		 0.00000056
Mg		-1.26536388		5.87743695		3.73814309		-0.00000017		 0.00049316		-0.00000056
Mg		4.34756205		6.46320565		1.24604801		 0.00000014		-0.00053420		 0.00000050
Mg		3.50398613		1.76388878		3.73814309		-0.00000014		 0.00053420		-0.00000050
Si		2.37296148		0.75672797		1.22461646		 0.00028057		 0.00002593		 0.00044114
Si		5.47858670		7.47036742		3.75957464		-0.00028057		-0.00002593		-0.00044114
Si		6.32216262		0.75672797		1.26747957		-0.00027590		 0.00002047		-0.00043714
Si		1.52938461		7.47036742		3.71671059		 0.00027590		-0.00002047		 0.00043714
Si		7.14231149		4.87027613		1.22461646		-0.00015438		-0.00026193		 0.00021708
Si		0.70923669		3.35681925		3.75957464		 0.00015438		 0.00026193		-0.00021708
Si		1.55281261		4.87027613		1.26747957		 0.00016054		-0.00026863		-0.00021206
Si		6.29873462		3.35681925		3.71671059		-0.00016054		 0.00026863		 0.00021206
O		0.84504584		0.68120340		0.68781754		-0.00029607		-0.00043890		-0.00022747
O		7.00650234		7.54589103		4.29637262		 0.00029607		 0.00043890		 0.00022747
O		7.85007827		0.68120340		1.80427659		 0.00029270		-0.00043848		 0.00022570
O		0.00146991		7.54589103		3.17991357		-0.00029270		 0.00043848		-0.00022570
O		5.61439585		4.79475062		0.68781754		-0.00002567		-0.00041951		-0.00012526
O		2.23715233		3.43234381		4.29637262		 0.00002567		 0.00041951		 0.00012526
O		3.08072825		4.79475062		1.80427659		 0.00002143		-0.00041917		 0.00012317
O		4.77081993		3.43234381		3.17991357		-0.00002143		 0.00041917		-0.00012317
O		2.93192644		2.12012202		1.58447441		-0.00056380		-0.00008058		-0.00024426
O		4.91962174		6.10697336		3.39971669		 0.00056380		 0.00008058		 0.00024426
O		5.76319766		2.12012202		0.90762066		 0.00056164		-0.00007558		 0.00024254
O		2.08834861		6.10697336		4.07657044		-0.00056164		 0.00007558		-0.00024254
O		7.70127645		6.23367019		1.58447441		-0.00039864		 0.00021727		-0.00015432
O		0.15027173		1.99342519		3.39971669		 0.00039864		-0.00021727		 0.00015432
O		0.99384765		6.23367019		0.90762066		 0.00039586		 0.00022367		 0.00015219
O		6.85769958		1.99342519		4.07657044		-0.00039586		-0.00022367		-0.00015219
O		3.33603347		0.05347586		0.12859217		 0.00022742		 0.00007667		 0.00028283
O		4.51551471		8.17361857		4.85559894		-0.00022742		-0.00007667		-0.00028283
O		5.35909063		0.05347586		2.36350386		-0.00022691		 0.00007724		-0.00028331
O		2.49245659		8.17361857		2.62068820		 0.00022691		-0.00007724		 0.00028331
O		8.10538348		4.16702403		0.12859217		 0.00027306		 0.00009047		 0.00031578
O		-0.25383530		4.06007136		4.85559894		-0.00027306		-0.00009047		-0.00031578
O		0.58974062		4.16702403		2.36350386		-0.00027247		 0.00009102		-0.00031621
O		7.26180660		4.06007136		2.62068820		 0.00027247		-0.00009102		 0.00031621
