# total energy = -24716.0660322 eV

CRYSTAL
PRIMVEC
		9.53870002		0.00000000		0.00000000
		0.00000000		9.30960906		0.00000000
		-1.68714803		0.00000000		4.98419015
PRIMECORD
   40 1
Mg		-0.42178796		8.41774729		1.24604801		 0.00000003		 0.00072763		-0.00000002
Mg		-1.26536388		0.89185987		3.73814309		-0.00000003		-0.00072763		 0.00000002
Mg		4.34756205		3.76294371		1.24604801		 0.00000001		 0.00073210		-0.00000001
Mg		3.50398613		5.54666440		3.73814309		-0.00000001		-0.00073210		 0.00000001
Mg		-0.42178796		2.65882392		1.24604801		-0.00000000		-0.00066452		-0.00000005
Mg		-1.26536388		6.65078419		3.73814309		0.00000000		 0.00066452		 0.00000005
Mg		4.34756205		7.31362845		1.24604801		-0.00000003		-0.00067405		-0.00000003
Mg		3.50398613		1.99597966		3.73814309		 0.00000003		 0.00067405		 0.00000003
Si		2.37296148		0.85629769		1.22461646		-0.00029339		-0.00065511		-0.00010683
Si		5.47858670		8.45331042		3.75957464		 0.00029339		 0.00065511		 0.00010683
Si		6.32216262		0.85629769		1.26747957		 0.00029313		-0.00065462		 0.00010654
Si		1.52938461		8.45331042		3.71671059		-0.00029313		 0.00065462		-0.00010654
Si		7.14231149		5.51110126		1.22461646		-0.00036711		-0.00071590		-0.00014232
Si		0.70923669		3.79850589		3.75957464		 0.00036711		 0.00071590		 0.00014232
Si		1.55281261		5.51110126		1.26747957		 0.00036685		-0.00071549		 0.00014203
Si		6.29873462		3.79850589		3.71671059		-0.00036685		 0.00071549		-0.00014203
O		0.84504584		0.77083570		0.68781754		-0.00044133		 0.00022516		-0.00030161
O		7.00650234		8.53877241		4.29637262		 0.00044133		-0.00022516		 0.00030161
O		7.85007827		0.77083570		1.80427659		 0.00044149		 0.00022517		 0.00030170
O		0.00146991		8.53877241		3.17991357		-0.00044149		-0.00022517		-0.00030170
O		5.61439585		5.42564024		0.68781754		-0.00039627		 0.00022942		-0.00028167
O		2.23715233		3.88396788		4.29637262		 0.00039627		-0.00022942		 0.00028167
O		3.08072825		5.42564024		1.80427659		 0.00039651		 0.00022943		 0.00028176
O		4.77081993		3.88396788		3.17991357		-0.00039651		-0.00022943		-0.00028176
O		2.93192644		2.39908607		1.58447441		-0.00019784		 0.00000235		 0.00023389
O		4.91962174		6.91052204		3.39971669		 0.00019784		-0.00000235		-0.00023389
O		5.76319766		2.39908607		0.90762066		 0.00019795		 0.00000205		-0.00023371
O		2.08834861		6.91052204		4.07657044		-0.00019795		-0.00000205		 0.00023371
O		7.70127645		7.05388870		1.58447441		-0.00016494		 0.00005960		 0.00025594
O		0.15027173		2.25571846		3.39971669		 0.00016494		-0.00005960		-0.00025594
O		0.99384765		7.05388870		0.90762066		 0.00016508		 0.00005928		-0.00025580
O		6.85769958		2.25571846		4.07657044		-0.00016508		-0.00005928		 0.00025580
O		3.33603347		0.06051161		0.12859217		-0.00021318		 0.00004137		 0.00003755
O		4.51551471		9.24909460		4.85559894		 0.00021318		-0.00004137		-0.00003755
O		5.35909063		0.06051161		2.36350386		 0.00021309		 0.00004123		-0.00003735
O		2.49245659		9.24909460		2.62068820		-0.00021309		-0.00004123		 0.00003735
O		8.10538348		4.71531614		0.12859217		-0.00020668		 0.00004407		 0.00004008
O		-0.25383530		4.59429102		4.85559894		 0.00020668		-0.00004407		-0.00004008
O		0.58974062		4.71531614		2.36350386		 0.00020658		 0.00004400		-0.00003993
O		7.26180660		4.59429102		2.62068820		-0.00020658		-0.00004400		 0.00003993
