# total energy = -24715.759347 eV

CRYSTAL
PRIMVEC
		9.53870002		0.00000000		0.00000000
		0.00000000		9.52610894		0.00000000
		-1.68714803		0.00000000		4.98419015
PRIMECORD
   40 1
Mg		-0.42178796		8.61350908		1.24604801		 0.00000001		-0.00000401		 0.00000007
Mg		-1.26536388		0.91260082		3.73814309		-0.00000001		 0.00000401		-0.00000007
Mg		4.34756205		3.85045365		1.24604801		0.00000000		-0.00001108		 0.00000004
Mg		3.50398613		5.67565624		3.73814309		-0.00000000		 0.00001108		-0.00000004
Mg		-0.42178796		2.72065664		1.24604801		-0.00000005		-0.00060136		-0.00000002
Mg		-1.26536388		6.80545326		3.73814309		 0.00000005		 0.00060136		 0.00000002
Mg		4.34756205		7.48371206		1.24604801		-0.00000000		-0.00059126		-0.00000003
Mg		3.50398613		2.04239783		3.73814309		0.00000000		 0.00059126		 0.00000003
Si		2.37296148		0.87621163		1.22461646		-0.00058555		-0.00070393		 0.00023851
Si		5.47858670		8.64989922		3.75957464		 0.00058555		 0.00070393		-0.00023851
Si		6.32216262		0.87621163		1.26747957		 0.00058558		-0.00070374		-0.00023856
Si		1.52938461		8.64989922		3.71671059		-0.00058558		 0.00070374		 0.00023856
Si		7.14231149		5.63926610		1.22461646		-0.00049186		-0.00063730		 0.00028164
Si		0.70923669		3.88684284		3.75957464		 0.00049186		 0.00063730		-0.00028164
Si		1.55281261		5.63926610		1.26747957		 0.00049190		-0.00063705		-0.00028172
Si		6.29873462		3.88684284		3.71671059		-0.00049190		 0.00063705		 0.00028172
O		0.84504584		0.78876178		0.68781754		-0.00029185		 0.00015103		-0.00050647
O		7.00650234		8.73734811		4.29637262		 0.00029185		-0.00015103		 0.00050647
O		7.85007827		0.78876178		1.80427659		 0.00029192		 0.00015106		 0.00050645
O		0.00146991		8.73734811		3.17991357		-0.00029192		-0.00015106		-0.00050645
O		5.61439585		5.55181721		0.68781754		-0.00035083		 0.00014756		-0.00052724
O		2.23715233		3.97429269		4.29637262		 0.00035083		-0.00014756		 0.00052724
O		3.08072825		5.55181721		1.80427659		 0.00035084		 0.00014756		 0.00052723
O		4.77081993		3.97429269		3.17991357		-0.00035084		-0.00014756		-0.00052723
O		2.93192644		2.45487888		1.58447441		-0.00012500		-0.00012409		-0.00082080
O		4.91962174		7.07123196		3.39971669		 0.00012500		 0.00012409		 0.00082080
O		5.76319766		2.45487888		0.90762066		 0.00012501		-0.00012416		 0.00082082
O		2.08834861		7.07123196		4.07657044		-0.00012501		 0.00012416		-0.00082082
O		7.70127645		7.21793335		1.58447441		-0.00015858		-0.00018588		-0.00084525
O		0.15027173		2.30817559		3.39971669		 0.00015858		 0.00018588		 0.00084525
O		0.99384765		7.21793335		0.90762066		 0.00015862		-0.00018602		 0.00084526
O		6.85769958		2.30817559		4.07657044		-0.00015862		 0.00018602		-0.00084526
O		3.33603347		0.06192047		0.12859217		-0.00035948		 0.00044183		 0.00015354
O		4.51551471		9.46419038		4.85559894		 0.00035948		-0.00044183		-0.00015354
O		5.35909063		0.06192047		2.36350386		 0.00035937		 0.00044174		-0.00015339
O		2.49245659		9.46419038		2.62068820		-0.00035937		-0.00044174		 0.00015339
O		8.10538348		4.82497494		0.12859217		-0.00037167		 0.00044190		 0.00015208
O		-0.25383530		4.70113495		4.85559894		 0.00037167		-0.00044190		-0.00015208
O		0.58974062		4.82497494		2.36350386		 0.00037156		 0.00044178		-0.00015185
O		7.26180660		4.70113495		2.62068820		-0.00037156		-0.00044178		 0.00015185
