# total energy = -24713.3737382 eV

CRYSTAL
PRIMVEC
		9.53870002		0.00000000		0.00000000
		0.00000000		8.01059074		0.00000000
		-1.68714803		0.00000000		4.98419015
PRIMECORD
   40 1
Mg		-0.42178796		7.24317848		1.24604801		 0.00000010		 0.00043655		-0.00000016
Mg		-1.26536388		0.76741513		3.73814309		-0.00000010		-0.00043655		 0.00000016
Mg		4.34756205		3.23788215		1.24604801		-0.00000008		 0.00042045		 0.00000001
Mg		3.50398613		4.77271145		3.73814309		 0.00000008		-0.00042045		-0.00000001
Mg		-0.42178796		2.28782477		1.24604801		-0.00000006		-0.00042070		-0.00000020
Mg		-1.26536388		5.72276693		3.73814309		 0.00000006		 0.00042070		 0.00000020
Mg		4.34756205		6.29312205		1.24604801		-0.00000014		-0.00040283		-0.00000043
Mg		3.50398613		1.71747060		3.73814309		 0.00000014		 0.00040283		 0.00000043
Si		2.37296148		0.73681402		1.22461646		 0.00008586		-0.00018575		 0.00028629
Si		5.47858670		7.27377767		3.75957464		-0.00008586		 0.00018575		-0.00028629
Si		6.32216262		0.73681402		1.26747957		-0.00009058		-0.00018048		-0.00029028
Si		1.52938461		7.27377767		3.71671059		 0.00009058		 0.00018048		 0.00029028
Si		7.14231149		4.74211035		1.22461646		 0.00025371		-0.00005643		 0.00037808
Si		0.70923669		3.26848230		3.75957464		-0.00025371		 0.00005643		-0.00037808
Si		1.55281261		4.74211035		1.26747957		-0.00025520		-0.00005470		-0.00037941
Si		6.29873462		3.26848230		3.71671059		 0.00025520		 0.00005470		 0.00037941
O		0.84504584		0.66327732		0.68781754		-0.00011386		-0.00068007		-0.00018074
O		7.00650234		7.34731533		4.29637262		 0.00011386		 0.00068007		 0.00018074
O		7.85007827		0.66327732		1.80427659		 0.00011696		-0.00068022		 0.00018220
O		0.00146991		7.34731533		3.17991357		-0.00011696		 0.00068022		-0.00018220
O		5.61439585		4.66857365		0.68781754		-0.00021041		-0.00068818		-0.00022017
O		2.23715233		3.34201900		4.29637262		 0.00021041		 0.00068818		 0.00022017
O		3.08072825		4.66857365		1.80427659		 0.00021161		-0.00068848		 0.00022092
O		4.77081993		3.34201900		3.17991357		-0.00021161		 0.00068848		-0.00022092
O		2.93192644		2.06433017		1.58447441		-0.00030290		 0.00012165		-0.00001869
O		4.91962174		5.94626344		3.39971669		 0.00030290		-0.00012165		 0.00001869
O		5.76319766		2.06433017		0.90762066		 0.00030521		 0.00011643		 0.00002042
O		2.08834861		5.94626344		4.07657044		-0.00030521		-0.00011643		-0.00002042
O		7.70127645		6.06962649		1.58447441		-0.00037189		-0.00001646		-0.00005902
O		0.15027173		1.94096711		3.39971669		 0.00037189		 0.00001646		 0.00005902
O		0.99384765		6.06962649		0.90762066		 0.00037251		-0.00001801		 0.00005959
O		6.85769958		1.94096711		4.07657044		-0.00037251		 0.00001801		-0.00005959
O		3.33603347		0.05206890		0.12859217		 0.00053459		 0.00046495		 0.00010197
O		4.51551471		7.95852375		4.85559894		-0.00053459		-0.00046495		-0.00010197
O		5.35909063		0.05206890		2.36350386		-0.00053502		 0.00046457		-0.00010159
O		2.49245659		7.95852375		2.62068820		 0.00053502		-0.00046457		 0.00010159
O		8.10538348		4.05736523		0.12859217		 0.00051755		 0.00045956		 0.00008924
O		-0.25383530		3.95322742		4.85559894		-0.00051755		-0.00045956		-0.00008924
O		0.58974062		4.05736523		2.36350386		-0.00051763		 0.00045939		-0.00008928
O		7.26180660		3.95322742		2.62068820		 0.00051763		-0.00045939		 0.00008928
