# total energy = -41271.3452827 eV	

CRYSTAL	
PRIMVEC	
		5.69779836		-0.45582273		0.00000000	
		-0.91696134		11.46199954		0.00000000	
		0.00000000		0.00000000		8.25709907	
PRIMCOORD
   56 1	
Mg		0.00000000		0.00000000		0.00000000		0.00000000		0.00000000		0.00000000	
Mg		-0.45848010		5.73099977		0.00000000		0.00000000		0.00000000		0.00000000	
Mg		2.39042023		5.50308784		4.12855011		0.00000000		0.00000000		0.00000000	
Mg		2.84889975		-0.22791193		4.12855011		0.00000000		0.00000000		0.00000000	
Mg		-0.22923976		2.86550017		8.00773612		-0.00000001		-0.00000000		 0.00073998	
Mg		-0.68771986		8.59649994		0.24936410		 0.00000001		0.00000000		-0.00073998	
Mg		2.16117990		8.36858801		3.87918601		-0.00000001		-0.00000000		 0.00073997	
Mg		2.61965999		2.63758824		4.37791477		 0.00000001		0.00000000		-0.00073997	
Mg		1.30808804		1.34057209		2.06427477		 0.00033026		 0.00047112		-0.00003406	
Mg		3.47275184		9.66560415		6.19282487		-0.00033026		-0.00047112		 0.00003406	
Mg		3.93123194		3.93460381		2.06427477		-0.00033026		-0.00047112		-0.00003405	
Mg		0.84960795		7.07157187		6.19282487		 0.00033026		 0.00047112		 0.00003405	
Mg		3.69850770		6.84365993		6.19282487		 0.00033026		 0.00047112		-0.00003406	
Mg		1.08233219		4.16251574		2.06427477		-0.00033026		-0.00047112		 0.00003406	
Mg		0.62385209		9.89351609		6.19282487		-0.00033026		-0.00047112		-0.00003406	
Mg		4.15698780		1.11266016		2.06427477		 0.00033026		 0.00047112		 0.00003406	
Si		-0.10994390		1.37429423		5.09050211		 0.00006499		 0.00002795		 0.00004597	
Si		-0.80701572		10.08770589		3.16659810		-0.00006499		-0.00002795		-0.00004597	
Si		-0.34853676		4.35670611		5.09050211		-0.00006503		-0.00002793		 0.00004597	
Si		-0.56842286		7.10529400		3.16659810		 0.00006503		 0.00002793		-0.00004597	
Si		2.28047690		6.87738207		0.96195200		 0.00006501		 0.00002793		 0.00004600	
Si		2.50036413		4.12879418		7.29514821		-0.00006501		-0.00002793		-0.00004600	
Si		2.04188404		9.85979395		0.96195200		-0.00006503		-0.00002792		 0.00004600	
Si		2.73895699		1.14638172		7.29514821		 0.00006503		 0.00002792		-0.00004600	
O		-0.22923976		2.86550017		1.80169927		0.00000000		0.00000000		-0.00091224	
O		-0.68771986		8.59649994		6.45540094		-0.00000000		-0.00000000		 0.00091224	
O		2.16117990		8.36858801		5.93024881		0.00000000		0.00000000		-0.00091223	
O		2.61965999		2.63758824		2.32685084		-0.00000000		-0.00000000		 0.00091223	
O		-0.22923976		2.86550017		5.90960603		 0.00000001		0.00000000		-0.00048278	
O		-0.68771986		8.59649994		2.34749418		-0.00000001		-0.00000000		 0.00048278	
O		2.16117990		8.36858801		1.78105592		0.00000000		0.00000000		-0.00048278	
O		2.61965999		2.63758824		6.47604372		-0.00000000		-0.00000000		 0.00048278	
O		-0.90760710		11.34508669		2.11794576		 0.00015393		-0.00003609		-0.00020837	
O		-0.00935310		0.11691286		6.13915388		-0.00015393		 0.00003609		 0.00020837	
O		-0.46783319		5.84791320		2.11794576		-0.00015395		 0.00003609		-0.00020837	
O		-0.44912700		5.61408692		6.13915388		 0.00015395		-0.00003609		 0.00020837	
O		2.39977275		5.38617498		6.24649586		 0.00015393		-0.00003610		-0.00020836	
O		2.38106713		5.62000069		2.01060378		-0.00015393		 0.00003610		 0.00020836	
O		2.83954723		-0.11099908		6.24649586		-0.00015395		 0.00003610		-0.00020836	
O		1.94129323		11.11717475		2.01060378		 0.00015395		-0.00003610		 0.00020836	
O		1.36957910		1.28668104		8.20012594		-0.00038612		 0.00032847		 0.00013385	
O		3.41126193		9.71949407		0.05697427		 0.00038612		-0.00032847		-0.00013385	
O		3.86974203		3.98849487		8.20012594		 0.00038611		-0.00032846		 0.00013386	
O		0.91109900		7.01768195		0.05697427		-0.00038611		 0.00032846		-0.00013386	
O		3.64490302		6.79897679		0.05697427		 0.00031020		 0.00046980		-0.00020606	
O		1.13593687		4.20719889		8.20012594		-0.00031020		-0.00046980		 0.00020606	
O		0.67745677		9.93819866		0.05697427		-0.00031020		-0.00046980		-0.00020605	
O		4.10338311		1.06797701		8.20012594		 0.00031020		 0.00046980		 0.00020605	
O		3.75999876		6.78977002		4.07157584		-0.00038612		 0.00032848		 0.00013384	
O		1.02084227		4.21640680		4.18552380		 0.00038612		-0.00032848		-0.00013384	
O		0.56236218		9.94740600		4.07157584		 0.00038610		-0.00032846		 0.00013385	
O		4.21847885		1.05876910		4.18552380		-0.00038610		 0.00032846		-0.00013385	
O		1.25448279		1.29588895		4.18552380		 0.00031021		 0.00046980		-0.00020606	
O		3.52635710		9.71028673		4.07157584		-0.00031021		-0.00046980		 0.00020606	
O		3.98483719		3.97928695		4.18552380		-0.00031020		-0.00046980		-0.00020605	
O		0.79600326		7.02688872		4.07157584		 0.00031020		 0.00046980		 0.00020605	
