# total energy = -41261.6990133 eV	

CRYSTAL	
PRIMVEC	
		5.69780212		-0.91165088		0.00000000	
		-1.83391906		11.46200276		0.00000000	
		0.00000000		0.00000000		8.25710194	
PRIMCOORD
   56 1	
Mg		0.00000000		0.00000000		0.00000000		0.00000000		0.00000000		0.00000000	
Mg		-0.91696011		5.73100022		0.00000000		0.00000000		0.00000000		0.00000000	
Mg		1.93193980		5.27517594		4.12854982		0.00000000		0.00000000		0.00000000	
Mg		2.84889991		-0.45582429		4.12854982		0.00000000		0.00000000		0.00000000	
Mg		-0.45847976		2.86549982		8.00773622		-0.00000000		 0.00000003		 0.00000853	
Mg		-1.37543987		8.59650005		0.24936399		0.00000000		-0.00000003		-0.00000853	
Mg		1.47346004		8.14067576		3.87918583		-0.00000001		 0.00000004		 0.00000853	
Mg		2.39042014		2.40967612		4.37791496		 0.00000001		-0.00000004		-0.00000853	
Mg		1.19172598		1.22661593		2.06427520		-0.00027065		-0.00036656		 0.00000020	
Mg		2.67215478		9.32373595		6.19282502		 0.00027065		 0.00036656		-0.00000020	
Mg		3.58911488		3.59273573		2.06427520		 0.00027065		 0.00036653		 0.00000017	
Mg		0.27476588		6.95761615		6.19282502		-0.00027065		-0.00036653		-0.00000017	
Mg		3.12366579		6.50179187		6.19282502		-0.00027067		-0.00036656		 0.00000026	
Mg		0.74021497		4.04856001		2.06427520		 0.00027067		 0.00036656		-0.00000026	
Mg		-0.17674513		9.77956024		6.19282502		 0.00027064		 0.00036654		 0.00000022	
Mg		4.04062589		0.77079222		2.06427520		-0.00027064		-0.00036654		-0.00000022	
Si		-0.21988714		1.37429389		5.09050188		-0.00037601		 0.00028515		 0.00000614	
Si		-1.61403307		10.08770598		3.16659776		 0.00037601		-0.00028515		-0.00000614	
Si		-0.69707297		4.35670575		5.09050188		 0.00037588		-0.00028493		 0.00000658	
Si		-1.13684724		7.10529412		3.16659776		-0.00037588		 0.00028493		-0.00000658	
Si		1.71205324		6.64946983		0.96195206		-0.00037608		 0.00028537		 0.00000578	
Si		2.15182694		3.90088205		7.29514815		 0.00037608		-0.00028537		-0.00000578	
Si		1.23486684		9.63188227		0.96195206		 0.00037592		-0.00028509		 0.00000626	
Si		2.62901277		0.91847019		7.29514815		-0.00037592		 0.00028509		-0.00000626	
O		-0.45847976		2.86549982		1.80169902		 0.00000002		-0.00000001		 0.00010370	
O		-1.37543987		8.59650005		6.45540119		-0.00000002		 0.00000001		-0.00010370	
O		1.47346004		8.14067576		5.93024884		 0.00000001		-0.00000001		 0.00010363	
O		2.39042014		2.40967612		2.32685080		-0.00000001		 0.00000001		-0.00010363	
O		-0.45847976		2.86549982		5.90960627		0.00000000		 0.00000002		 0.00005927	
O		-1.37543987		8.59650005		2.34749394		-0.00000000		-0.00000002		-0.00005927	
O		1.47346004		8.14067576		1.78105587		0.00000000		 0.00000001		 0.00005934	
O		2.39042014		2.40967612		6.47604376		-0.00000000		-0.00000001		-0.00005934	
O		-1.81521415		11.34508726		2.11794622		-0.00036818		-0.00017744		-0.00022438	
O		-0.01870606		0.11691319		6.13915399		 0.00036818		 0.00017744		 0.00022438	
O		-0.93566617		5.84791284		2.11794622		 0.00036817		 0.00017769		-0.00022407	
O		-0.89825404		5.61408703		6.13915399		-0.00036817		-0.00017769		 0.00022407	
O		1.95064587		5.15826275		6.24649604		-0.00036817		-0.00017724		-0.00022462	
O		1.91323374		5.39208913		2.01060418		 0.00036817		 0.00017724		 0.00022462	
O		2.83019384		-0.33891109		6.24649604		 0.00036818		 0.00017753		-0.00022429	
O		1.03368576		10.88926297		2.01060418		-0.00036818		-0.00017753		 0.00022429	
O		1.25715912		1.16812096		8.20012629		-0.00039522		-0.00026695		-0.00033663	
O		2.60672106		9.38222977		0.05697392		 0.00039522		 0.00026695		 0.00033663	
O		3.52368116		3.65123127		8.20012629		 0.00039503		 0.00026695		-0.00033678	
O		0.34019902		6.89912176		0.05697392		-0.00039503		-0.00026695		 0.00033678	
O		3.07400395		6.46171272		0.05697392		-0.00050162		 0.00030452		-0.00004589	
O		0.78987623		4.08863916		8.20012629		 0.00050162		-0.00030452		 0.00004589	
O		-0.12708272		9.81963881		0.05697392		 0.00050157		-0.00030449		-0.00004591	
O		3.99096405		0.73071307		8.20012629		-0.00050157		 0.00030449		 0.00004591	
O		3.18909893		6.44329805		4.07157589		-0.00039529		-0.00026694		-0.00033655	
O		0.67478126		4.10705498		4.18552374		 0.00039529		 0.00026694		 0.00033655	
O		-0.24217885		9.83805405		4.07157589		 0.00039512		 0.00026693		-0.00033669	
O		4.10605903		0.71229725		4.18552374		-0.00039512		-0.00026693		 0.00033669	
O		1.14206415		1.18653678		4.18552374		-0.00050157		 0.00030452		-0.00004592	
O		2.72181719		9.36381510		4.07157589		 0.00050157		-0.00030452		 0.00004592	
O		3.63877672		3.63281488		4.18552374		 0.00050154		-0.00030448		-0.00004593	
O		0.22510404		6.91753700		4.07157589		-0.00050154		 0.00030448		 0.00004593	
