# total energy = -41271.3452827 eV	

CRYSTAL	
PRIMVEC	
		5.69779836		0.45582273		0.00000000	
		0.91696134		11.46199954		0.00000000	
		0.00000000		0.00000000		8.25709907	
PRIMCOORD
   56 1	
Mg		0.00000000		0.00000000		0.00000000		0.00000000		0.00000000		0.00000000	
Mg		0.45848010		5.73099977		0.00000000		0.00000000		0.00000000		0.00000000	
Mg		3.30737985		5.95891171		4.12855011		0.00000000		0.00000000		0.00000000	
Mg		2.84889975		0.22791193		4.12855011		0.00000000		0.00000000		0.00000000	
Mg		0.22923976		2.86550017		8.00773612		0.00000000		0.00000000		 0.00074001	
Mg		0.68771986		8.59649994		0.24936410		-0.00000000		-0.00000000		-0.00074001	
Mg		3.53662018		8.82441188		3.87918601		 0.00000001		0.00000000		 0.00074000	
Mg		3.07814009		3.09341211		4.37791477		-0.00000001		-0.00000000		-0.00074000	
Mg		1.54081171		1.56848403		2.06427477		-0.00033027		 0.00047113		 0.00003407	
Mg		5.07394799		10.34933996		6.19282487		 0.00033027		-0.00047113		-0.00003407	
Mg		4.61546789		4.61834019		2.06427477		 0.00033028		-0.00047114		 0.00003406	
Mg		1.99929181		7.29948380		6.19282487		-0.00033028		 0.00047114		-0.00003406	
Mg		4.84819213		7.52739573		6.19282487		-0.00033027		 0.00047113		 0.00003406	
Mg		1.76656814		4.39042825		2.06427477		 0.00033027		-0.00047113		-0.00003406	
Mg		2.22504824		10.12142802		6.19282487		 0.00033027		-0.00047114		 0.00003406	
Mg		4.38971204		1.79639596		2.06427477		-0.00033027		 0.00047114		-0.00003406	
Si		0.10994390		1.37429423		5.09050211		-0.00006498		 0.00002794		 0.00004597	
Si		0.80701572		10.08770589		3.16659810		 0.00006498		-0.00002794		-0.00004597	
Si		0.34853676		4.35670611		5.09050211		 0.00006503		-0.00002792		 0.00004600	
Si		0.56842286		7.10529400		3.16659810		-0.00006503		 0.00002792		-0.00004600	
Si		3.41732375		7.33320594		0.96195200		-0.00006499		 0.00002794		 0.00004598	
Si		3.19743709		4.58461805		7.29514821		 0.00006499		-0.00002794		-0.00004598	
Si		3.65591718		10.31561782		0.96195200		 0.00006502		-0.00002792		 0.00004601	
Si		2.95884423		1.60220616		7.29514821		-0.00006502		 0.00002792		-0.00004601	
O		0.22923976		2.86550017		1.80169927		0.00000000		-0.00000000		-0.00091224	
O		0.68771986		8.59649994		6.45540094		-0.00000000		0.00000000		 0.00091224	
O		3.53662018		8.82441188		5.93024881		0.00000000		-0.00000000		-0.00091223	
O		3.07814009		3.09341211		2.32685084		-0.00000000		0.00000000		 0.00091223	
O		0.22923976		2.86550017		5.90960603		-0.00000001		0.00000000		-0.00048276	
O		0.68771986		8.59649994		2.34749418		 0.00000001		-0.00000000		 0.00048276	
O		3.53662018		8.82441188		1.78105592		-0.00000000		0.00000000		-0.00048276	
O		3.07814009		3.09341211		6.47604372		0.00000000		-0.00000000		 0.00048276	
O		0.90760710		11.34508669		2.11794576		-0.00015393		-0.00003609		-0.00020837	
O		0.00935310		0.11691286		6.13915388		 0.00015393		 0.00003609		 0.00020837	
O		0.46783319		5.84791320		2.11794576		 0.00015395		 0.00003610		-0.00020836	
O		0.44912700		5.61408692		6.13915388		-0.00015395		-0.00003610		 0.00020836	
O		3.29802675		5.84199885		6.24649586		-0.00015393		-0.00003609		-0.00020837	
O		3.31673295		6.07582513		2.01060378		 0.00015393		 0.00003609		 0.00020837	
O		2.85825285		0.34482479		6.24649586		 0.00015395		 0.00003610		-0.00020836	
O		3.75650685		11.57299919		2.01060378		-0.00015395		-0.00003610		 0.00020836	
O		1.59441697		1.52380088		8.20012594		-0.00031021		 0.00046980		 0.00020605	
O		5.02034273		10.39402310		0.05697427		 0.00031021		-0.00046980		-0.00020605	
O		4.56186321		4.66302276		8.20012594		 0.00031021		-0.00046980		 0.00020605	
O		2.05289706		7.25480123		0.05697427		-0.00031021		 0.00046980		-0.00020605	
O		4.78670222		7.47350582		0.05697427		 0.00038611		 0.00032847		-0.00013387	
O		1.82805919		4.44431873		8.20012594		-0.00038611		-0.00032847		 0.00013387	
O		2.28653872		10.17531794		0.05697427		-0.00038612		-0.00032848		-0.00013387	
O		4.32822212		1.74250491		8.20012594		 0.00038612		 0.00032848		 0.00013387	
O		4.90179682		7.48271316		4.07157584		-0.00031020		 0.00046981		 0.00020605	
O		1.71296288		4.43511082		4.18552380		 0.00031020		-0.00046981		-0.00020605	
O		2.17144298		10.16611117		4.07157584		 0.00031021		-0.00046981		 0.00020604	
O		4.44331672		1.75171282		4.18552380		-0.00031021		 0.00046981		-0.00020604	
O		1.47932180		1.51459297		4.18552380		 0.00038611		 0.00032847		-0.00013386	
O		5.13543904		10.40322987		4.07157584		-0.00038611		-0.00032847		 0.00013386	
O		4.67695895		4.67223124		4.18552380		-0.00038612		-0.00032848		-0.00013387	
O		1.93780189		7.24559389		4.07157584		 0.00038612		 0.00032848		 0.00013387	
