# total energy = -9075.45534318 eV	

CRYSTAL	
PRIMVEC	
		5.11309987		-0.20452379		0.00000000	
		-0.20759410		5.18980141		0.00000000	
		-0.00383789		0.00015352		7.33030089	
PRIMCOORD
   28 1	
Mg		3.77317685		2.51236199		1.83990508		 0.00009212		-0.00015041		-0.00054288	
Mg		1.22647597		0.02348175		5.49039376		-0.00030335		-0.00009669		 0.00042067	
Si		1.27461695		0.01637500		1.83257471		-0.00021635		-0.00029737		-0.00017772	
Si		3.72545191		2.50908904		5.49772362		-0.00008120		 0.00029696		-0.00034407	
O		1.65138786		4.99626576		3.53320374		 0.00033770		 0.00001174		-0.00043317	
O		3.15603471		2.34533184		3.79709459		 0.00019507		-0.00046493		-0.00005341	
O		4.29467567		2.67803557		7.16903167		 0.00009720		 0.00059044		-0.00025157	
O		0.69003087		0.23147398		0.16126717		-0.00008105		-0.00003322		-0.00024823	
O		4.46822563		3.98201188		5.07989648		 0.00001695		 0.00057345		-0.00006639	
O		0.41143987		1.55353596		2.25040185		 0.00066996		-0.00016120		-0.00049564	
O		2.16059878		3.33854487		5.87889941		 0.00031780		-0.00000000		-0.00022479	
O		2.77802288		0.72310018		1.45139892		 0.00009522		-0.00047729		 0.00038795	
O		4.67182065		4.16040167		2.34569567		-0.00043653		-0.00043440		-0.00000797	
O		0.19289805		1.74881094		4.98460266		-0.00075665		 0.00000296		 0.00022554	
O		1.85217866		3.57886800		1.31945375		 0.00012050		 0.00047932		 0.00012125	
O		3.06817361		0.93947999		6.01084458		 0.00028644		 0.00037930		 0.00012486	
H		2.16811388		4.07401688		3.58451584		-0.00014482		-0.00003176		 0.00027115	
H		2.71155162		1.46153095		3.74578250		 0.00003946		 0.00003495		-0.00023886	
H		4.77502769		3.43086458		7.22034377		-0.00083961		-0.00040996		 0.00039051	
H		0.14781613		1.02520518		0.10995405		 0.00007072		 0.00006399		 0.00016186	
H		1.44829279		2.77116482		5.67365052		 0.00024322		 0.00040955		-0.00009188	
H		3.53807479		0.09682591		1.65664782		-0.00010568		-0.00010747		-0.00010820	
H		3.76242666		4.77710578		5.35844859		 0.00020596		 0.00000455		 0.00026330	
H		1.05579113		2.29462306		1.97184974		-0.00006711		 0.00029861		 0.00009288	
H		4.60217163		4.23054758		3.26198303		 0.00017752		-0.00023886		-0.00002857	
H		0.25714896		1.81360069		4.06831582		 0.00022039		-0.00017782		 0.00057147	
H		1.96253288		3.51227597		0.38850616		 0.00028198		-0.00006524		 0.00035828	
H		2.96280302		0.88151708		6.94179268		-0.00043591		 0.00000079		-0.00007637	
