# total energy = -9075.45534318 eV	

CRYSTAL	
PRIMVEC	
		5.11309987		0.20452379		0.00000000	
		0.20759410		5.18980141		0.00000000	
		-0.00383789		-0.00015352		7.33030089	
PRIMCOORD
   28 1	
Mg		3.98658152		2.82275171		1.83990508		 0.00030335		-0.00009668		-0.00042067	
Mg		1.23228910		0.12183207		5.49039376		-0.00009212		-0.00015042		 0.00054288	
Si		1.28001404		0.11856014		1.83257471		 0.00008120		 0.00029696		 0.00034407	
Si		3.93844055		2.81564496		5.49772362		 0.00021635		-0.00029737		 0.00017772	
O		2.05702279		5.14460282		3.53320374		-0.00019505		-0.00046493		 0.00005343	
O		3.35407758		2.60573686		3.79709459		-0.00033770		 0.00001175		 0.00043316	
O		4.52302663		3.03074393		7.16903167		 0.00008104		-0.00003323		 0.00024822	
O		0.71078976		0.28750617		0.16126717		-0.00009717		 0.00059039		 0.00025158	
O		4.80161763		4.35280591		5.07989648		-0.00066996		-0.00016118		 0.00049563	
O		0.53723980		1.59148298		2.25040185		-0.00001696		 0.00057346		 0.00006640	
O		2.43503462		3.52236963		5.87889941		-0.00009522		-0.00047729		-0.00038795	
O		2.84486666		0.94801597		1.45139892		-0.00031782		-0.00000002		 0.00022479	
O		5.02015945		4.54808192		2.34569567		 0.00075662		 0.00000295		-0.00022555	
O		0.33364478		1.76987278		4.98460266		 0.00043653		-0.00043440		 0.00000797	
O		2.14488389		3.73874994		1.31945375		-0.00028644		 0.00037932		-0.00012485	
O		3.15328678		1.18833808		6.01084458		-0.00012048		 0.00047936		-0.00012126	
H		2.50150587		4.26080091		3.58451584		-0.00003947		 0.00003495		 0.00023885	
H		2.83735156		1.68348696		3.74578250		 0.00014480		-0.00003177		-0.00027116	
H		5.06524188		3.82447462		7.22034377		-0.00007072		 0.00006399		-0.00016186	
H		0.23043774		1.04033517		0.10995405		 0.00083959		-0.00040992		-0.00039050	
H		1.67498270		2.89609586		5.67365052		 0.00010567		-0.00010748		 0.00010820	
H		3.55717265		0.38063593		1.65664782		-0.00024322		 0.00040955		 0.00009188	
H		4.15726688		5.09389250		5.35844859		 0.00006712		 0.00029861		-0.00009287	
H		1.24303878		2.38657587		1.97184974		-0.00020596		 0.00000454		-0.00026330	
H		4.95590854		4.61287064		3.26198303		-0.00022038		-0.00017782		-0.00057147	
H		0.40329381		1.84001766		4.06831582		-0.00017751		-0.00023886		 0.00002858	
H		2.25025499		3.68078653		0.38850616		 0.00043591		 0.00000078		 0.00007635	
H		3.04293359		1.12174606		6.94179268		-0.00028198		-0.00006526		-0.00035827	
