# total energy = -18366.8213027 eV

CRYSTAL
PRIMVEC
		4.81500060		-0.57779891		0.00000000
		-1.32959945		11.08000029		0.00000000
		0.00000000		0.00000000		6.37000201
PRIMECORD
   28 1
Mg		0.00000000		0.00000000		0.00000000		0.00000000		0.00000000		0.00000000
Mg		1.74270009		5.25109972		0.00000000		0.00000000		0.00000000		0.00000000
Mg		0.00000000		0.00000000		3.18500003		0.00000000		0.00000000		0.00000000
Mg		1.74270009		5.25109972		3.18500003		0.00000000		0.00000000		0.00000000
Ca		4.39143805		2.27958291		1.59250002		 0.00058938		 0.00048781		0.00000000
Ca		-0.90603786		8.22261750		4.77750005		-0.00058938		-0.00048781		0.00000000
Ca		2.00255175		2.41336292		4.77750005		 0.00031316		 0.00088273		0.00000000
Ca		1.48284795		8.08883652		1.59250002		-0.00031316		-0.00088273		0.00000000
Si		1.82609915		0.72002682		1.59250002		-0.00009513		 0.00038404		0.00000000
Si		1.65930103		9.78217262		4.77750005		 0.00009513		-0.00038404		0.00000000
Si		3.79749064		4.06536684		4.77750005		-0.00004805		 0.00007642		-0.00000000
Si		-0.31209094		6.43683357		1.59250002		 0.00004805		-0.00007642		-0.00000000
O		3.58957663		0.30092099		1.59250002		 0.00010767		 0.00038540		-0.00000000
O		-0.10417693		10.20127845		4.77750005		-0.00010767		-0.00038540		0.00000000
O		0.69544302		4.64510071		4.77750005		-0.00051970		-0.00016337		0.00000000
O		2.78995667		5.85709873		1.59250002		 0.00051970		 0.00016337		0.00000000
O		2.92690585		4.71585895		1.59250002		 0.00012842		-0.00026279		0.00000000
O		0.55849384		5.78634097		4.77750005		-0.00012842		 0.00026279		0.00000000
O		1.08847383		0.26251891		4.77750005		 0.00051406		 0.00012560		0.00000000
O		2.39692587		10.23968053		1.59250002		-0.00051406		-0.00012560		0.00000000
O		1.00032076		1.55079006		0.19110016		 0.00036617		 0.00028185		-0.00057219
O		2.48507894		8.95140986		6.17889991		-0.00036617		-0.00028185		 0.00057219
O		3.14987867		3.41140972		6.17889991		-0.00000532		-0.00003095		-0.00000503
O		0.33552103		7.09078972		0.19110016		 0.00000532		 0.00003095		 0.00000503
O		2.48507894		8.95140986		3.37609971		-0.00036617		-0.00028185		-0.00057219
O		1.00032076		1.55079006		2.99389988		 0.00036617		 0.00028185		 0.00057219
O		0.33552103		7.09078972		2.99389988		 0.00000532		 0.00003095		-0.00000503
O		3.14987867		3.41140972		3.37609971		-0.00000532		-0.00003095		 0.00000503
