# total energy = -18366.4768768 eV

CRYSTAL
PRIMVEC
		4.81499869		-0.38519893		0.00000000
		-0.88639952		11.08000120		0.00000000
		0.00000000		0.00000000		6.37000056
PRIMECORD
   28 1
Mg		0.00000000		0.00000000		0.00000000		0.00000000		0.00000000		0.00000000
Mg		1.96430007		5.34740017		0.00000000		0.00000000		0.00000000		0.00000000
Mg		0.00000000		0.00000000		3.18499980		0.00000000		0.00000000		0.00000000
Mg		1.96430007		5.34740017		3.18499980		0.00000000		0.00000000		0.00000000
Ca		4.50534019		2.46890801		1.59250014		-0.00031481		-0.00025620		0.00000000
Ca		-0.57674006		8.22589185		4.77749994		 0.00031481		 0.00025620		0.00000000
Ca		2.11025010		2.50638792		4.77749994		 0.00037665		 0.00041692		0.00000000
Ca		1.81835003		8.18841097		1.59250014		-0.00037665		-0.00041692		0.00000000
Si		1.86421501		0.79764412		1.59250014		-0.00004173		-0.00012793		0.00000000
Si		2.06438513		9.89715525		4.77749994		 0.00004173		 0.00012793		0.00000000
Si		3.98097502		4.23928412		4.77749994		 0.00016108		-0.00027500		0.00000000
Si		-0.05237488		6.45551622		1.59250014		-0.00016108		 0.00027500		0.00000000
O		3.61927107		0.44806685		1.59250014		-0.00017091		 0.00014096		0.00000000
O		0.30932906		10.24673204		4.77749994		 0.00017091		-0.00014096		0.00000000
O		0.88734917		4.69594712		4.77749994		 0.00014261		 0.00045478		0.00000000
O		3.04125097		5.99885322		1.59250014		-0.00014261		-0.00045478		0.00000000
O		3.13255004		4.85761281		1.59250014		 0.00022033		-0.00015616		0.00000000
O		0.79605009		5.83718704		4.77749994		-0.00022033		 0.00015616		0.00000000
O		1.10442998		0.30797317		4.77749994		-0.00046930		-0.00071292		-0.00000000
O		2.82417015		10.38682717		1.59250014		 0.00046930		 0.00071292		0.00000000
O		1.06813110		1.59894001		0.19110011		-0.00009076		-0.00008372		 0.00001007
O		2.86046903		9.09585985		6.17889996		 0.00009076		 0.00008372		-0.00001007
O		3.30366879		3.55586022		6.17889996		-0.00026516		-0.00016639		 0.00001453
O		0.62493086		7.13894012		0.19110011		 0.00026516		 0.00016639		-0.00001453
O		2.86046903		9.09585985		3.37609991		 0.00009076		 0.00008372		 0.00001007
O		1.06813110		1.59894001		2.99390017		-0.00009076		-0.00008372		-0.00001007
O		0.62493086		7.13894012		2.99390017		 0.00026516		 0.00016639		 0.00001453
O		3.30366879		3.55586022		3.37609991		-0.00026516		-0.00016639		-0.00001453
