# total energy = -18374.5642152 eV

CRYSTAL
PRIMVEC
		4.81500031		-0.19259982		0.00000000
		-0.44319932		11.08000239		0.00000000
		0.00000000		0.00000000		6.37000002
PRIMECORD
   28 1
Mg		0.00000000		0.00000000		0.00000000		0.00000000		0.00000000		0.00000000
Mg		2.18590001		5.44370032		0.00000000		0.00000000		0.00000000		0.00000000
Mg		0.00000000		0.00000000		3.18500001		0.00000000		0.00000000		0.00000000
Mg		2.18590001		5.44370032		3.18500001		0.00000000		0.00000000		0.00000000
Ca		4.61924318		2.65823411		1.59250000		 0.00031206		-0.00006983		0.00000000
Ca		-0.24744316		8.22916606		4.77750001		-0.00031206		 0.00006983		0.00000000
Ca		2.21794681		2.59941425		4.77750001		-0.00045418		-0.00089007		0.00000000
Ca		2.15385321		8.28798543		1.59250000		 0.00045418		 0.00089007		0.00000000
Si		1.90232993		0.87526180		1.59250000		 0.00029348		-0.00029347		0.00000000
Si		2.46947009		10.01213739		4.77750001		-0.00029348		 0.00029347		0.00000000
Si		4.16446030		4.41320214		4.77750001		 0.00016820		 0.00018269		-0.00000000
Si		0.20734020		6.47419802		1.59250000		-0.00016820		-0.00018269		0.00000000
O		3.64896617		0.59521382		1.59250000		 0.00002252		-0.00017483		0.00000000
O		0.72283385		10.29218634		4.77750001		-0.00002252		 0.00017483		0.00000000
O		1.07925387		4.74679430		4.77750001		 0.00013360		 0.00064407		0.00000000
O		3.29254615		6.14060731		1.59250000		-0.00013360		-0.00064407		0.00000000
O		3.33819512		4.99936616		1.59250000		 0.00063552		 0.00082622		0.00000000
O		1.03360490		5.88803400		4.77750001		-0.00063552		-0.00082622		0.00000000
O		1.12038517		0.35342703		4.77750001		-0.00007642		-0.00061156		-0.00000000
O		3.25141485		10.53397313		1.59250000		 0.00007642		 0.00061156		0.00000000
O		1.13593993		1.64708987		0.19110019		 0.00020063		-0.00003618		 0.00022564
O		3.23586009		9.24031029		6.17890031		-0.00020063		 0.00003618		-0.00022564
O		3.45746023		3.70031006		6.17890031		-0.00003809		 0.00021904		 0.00003652
O		0.91433979		7.18709010		0.19110019		 0.00003809		-0.00021904		-0.00003652
O		3.23586009		9.24031029		3.37610020		-0.00020063		 0.00003618		 0.00022564
O		1.13593993		1.64708987		2.99390030		 0.00020063		-0.00003618		-0.00022564
O		0.91433979		7.18709010		2.99390030		 0.00003809		-0.00021904		 0.00003652
O		3.45746023		3.70031006		3.37610020		-0.00003809		 0.00021904		-0.00003652
