# total energy = -18374.5643225 eV

CRYSTAL
PRIMVEC
		4.81500031		0.19259982		0.00000000
		0.44319932		11.08000239		0.00000000
		0.00000000		0.00000000		6.37000002
PRIMECORD
   28 1
Mg		0.00000000		0.00000000		0.00000000		0.00000000		0.00000000		0.00000000
Mg		2.62910030		5.63630014		0.00000000		0.00000000		0.00000000		0.00000000
Mg		0.00000000		0.00000000		3.18500001		0.00000000		0.00000000		0.00000000
Mg		2.62910030		5.63630014		3.18500001		0.00000000		0.00000000		0.00000000
Ca		4.84704711		3.03688589		1.59250000		-0.00021515		 0.00001360		0.00000000
Ca		0.41115300		8.23571439		4.77750001		 0.00021515		-0.00001360		0.00000000
Ca		2.43334317		2.78546622		4.77750001		 0.00074590		 0.00038509		0.00000000
Ca		2.82485791		8.48713407		1.59250000		-0.00074590		-0.00038509		-0.00000000
Si		1.97855981		1.03049818		1.59250000		-0.00079194		 0.00019629		-0.00000000
Si		3.27964031		10.24210210		4.77750001		 0.00079194		-0.00019629		-0.00000000
Si		4.53143023		4.76103834		4.77750001		-0.00026686		-0.00004311		0.00000000
Si		0.72676989		6.51156194		1.59250000		 0.00026686		 0.00004311		0.00000000
O		3.70835417		0.88950584		1.59250000		 0.00024205		 0.00055758		0.00000000
O		1.54984595		10.38309347		4.77750001		-0.00024205		-0.00055758		0.00000000
O		1.46306616		4.84848602		4.77750001		-0.00006031		 0.00026735		0.00000000
O		3.79513395		6.42411426		1.59250000		 0.00006031		-0.00026735		0.00000000
O		3.74948498		5.28287311		1.59250000		 0.00052519		-0.00037643		0.00000000
O		1.50871513		5.98972717		4.77750001		-0.00052519		 0.00037643		0.00000000
O		1.15229511		0.44433416		4.77750001		-0.00001088		 0.00021295		0.00000000
O		4.10590500		10.82826612		1.59250000		 0.00001088		-0.00021295		0.00000000
O		1.27156022		1.74339026		0.19110019		-0.00036912		-0.00023149		 0.00052467
O		3.98663990		9.52921002		6.17890031		 0.00036912		 0.00023149		-0.00052467
O		3.76504023		3.98921027		6.17890031		 0.00016115		 0.00002836		 0.00026254
O		1.49315988		7.28339001		0.19110019		-0.00016115		-0.00002836		-0.00026254
O		3.98663990		9.52921002		3.37610020		 0.00036912		 0.00023149		 0.00052467
O		1.27156022		1.74339026		2.99390030		-0.00036912		-0.00023149		-0.00052467
O		1.49315988		7.28339001		2.99390030		-0.00016115		-0.00002836		 0.00026254
O		3.76504023		3.98921027		3.37610020		 0.00016115		 0.00002836		-0.00026254
