# total energy = -44011.1179143 eV	

CRYSTAL	
PRIMVEC	
		9.81799975		0.00000000		0.00000000	
		0.00000000		18.04700533		0.00000000	
		-1.33411890		0.00000000		5.48626881	
PRIMCOORD
   82 1	
Si		2.35753443		1.51594825		1.62612879		-0.00018153		-0.00006604		 0.00001482	
Si		6.12634446		16.53105217		3.86013707		 0.00018153		 0.00006604		-0.00001482	
Si		6.12634446		1.51594825		3.86013707		 0.00018153		-0.00006604		-0.00001482	
Si		2.35753443		16.53105217		1.62612879		-0.00018153		 0.00006604		 0.00001482	
Si		7.26653430		10.53944797		1.62612879		 0.00001247		-0.00003702		 0.00005004	
Si		1.21734557		7.50755245		3.86013707		-0.00001247		 0.00003702		-0.00005004	
Si		1.21734557		10.53944797		3.86013707		-0.00001247		-0.00003702		-0.00005004	
Si		7.26653430		7.50755245		1.62612879		 0.00001247		 0.00003702		 0.00005004	
Si		1.76155730		3.08784241		4.41205494		-0.00021592		-0.00013774		-0.00003120	
Si		6.72232257		14.95915899		1.07421092		 0.00021592		 0.00013774		 0.00003120	
Si		6.72232257		3.08784241		1.07421092		 0.00021592		-0.00013774		 0.00003120	
Si		1.76155730		14.95915899		4.41205494		-0.00021592		 0.00013774		-0.00003120	
Si		6.67055717		12.11134311		4.41205494		 0.00025937		 0.00027519		 0.00002424	
Si		1.81332172		5.93565829		1.07421092		-0.00025937		-0.00027519		-0.00002424	
Si		1.81332172		12.11134311		1.07421092		-0.00025937		 0.00027519		-0.00002424	
Si		6.67055717		5.93565829		4.41205494		 0.00025937		-0.00027519		 0.00002424	
O		2.58846753		2.13856947		3.22811905		 0.00006168		 0.00011746		 0.00002693	
O		5.89541038		15.90843095		2.25814681		-0.00006168		-0.00011746		-0.00002693	
O		5.89541038		2.13856947		2.25814681		-0.00006168		 0.00011746		-0.00002693	
O		2.58846753		15.90843095		3.22811905		 0.00006168		-0.00011746		 0.00002693	
O		7.49746838		11.16207017		3.22811905		 0.00000719		 0.00005743		-0.00003230	
O		0.98641051		6.88493123		2.25814681		-0.00000719		-0.00005743		 0.00003230	
O		0.98641051		11.16207017		2.25814681		-0.00000719		 0.00005743		 0.00003230	
O		7.49746838		6.88493123		3.22811905		 0.00000719		-0.00005743		-0.00003230	
O		0.80703271		1.55204216		1.19106769		-0.00002452		 0.00016198		-0.00009079	
O		7.67684716		16.49495727		4.29519817		 0.00002452		-0.00016198		 0.00009079	
O		7.67684716		1.55204216		4.29519817		 0.00002452		 0.00016198		 0.00009079	
O		0.80703271		16.49495727		1.19106769		-0.00002452		-0.00016198		-0.00009079	
O		5.71603258		10.57554286		1.19106769		-0.00017196		 0.00018599		-0.00012290	
O		2.76784729		7.47145756		4.29519817		 0.00017196		-0.00018599		 0.00012290	
O		2.76784729		10.57554286		4.29519817		 0.00017196		 0.00018599		 0.00012290	
O		5.71603258		7.47145756		1.19106769		-0.00017196		-0.00018599		-0.00012290	
O		2.52914030		4.47565595		4.35225449		 0.00020277		 0.00035008		 0.00007492	
O		5.95473957		13.57134349		1.13401137		-0.00020277		-0.00035008		-0.00007492	
O		5.95473957		4.47565595		1.13401137		-0.00020277		 0.00035008		-0.00007492	
O		2.52914030		13.57134349		4.35225449		 0.00020277		-0.00035008		 0.00007492	
O		7.43813919		13.49915665		4.35225449		-0.00004742		 0.00003190		 0.00005168	
O		1.04573970		4.54784377		1.13401137		 0.00004742		-0.00003190		-0.00005168	
O		1.04573970		13.49915665		1.13401137		 0.00004742		 0.00003190		-0.00005168	
O		7.43813919		4.54784377		4.35225449		-0.00004742		-0.00003190		 0.00005168	
O		2.91896987		0.00000000		1.60253810		 0.00048380		0.00000000		-0.00004305	
O		5.56491000		0.00000000		3.88372776		-0.00048380		0.00000000		 0.00004305	
O		7.82796876		9.02349972		1.60253810		 0.00050067		0.00000000		-0.00004742	
O		0.65591013		9.02349972		3.88372776		-0.00050067		0.00000000		 0.00004742	
O		0.19753030		3.08964696		3.97205736		 0.00005484		-0.00017882		 0.00010563	
O		8.28634957		14.95735346		1.51420948		-0.00005484		 0.00017882		-0.00010563	
O		8.28634957		3.08964696		1.51420948		-0.00005484		-0.00017882		-0.00010563	
O		0.19753030		14.95735346		3.97205736		 0.00005484		 0.00017882		 0.00010563	
O		5.10653018		12.11314766		3.97205736		-0.00016348		-0.00020312		 0.00005058	
O		3.37734970		5.93385374		1.51420948		 0.00016348		 0.00020312		-0.00005058	
O		3.37734970		12.11314766		1.51420948		 0.00016348		-0.00020312		-0.00005058	
O		5.10653018		5.93385374		3.97205736		-0.00016348		 0.00020312		 0.00005058	
O		0.12189047		0.00000000		3.92377833		-0.00034215		0.00000000		 0.00019065	
O		8.36198940		0.00000000		1.56248852		 0.00034215		0.00000000		-0.00019065	
O		5.03089034		9.02349972		3.92377833		-0.00043054		0.00000000		 0.00017792	
O		3.45298953		9.02349972		1.56248852		 0.00043054		0.00000000		-0.00017792	
O		3.26959224		2.42371167		0.54423823		 0.00007720		-0.00010533		 0.00006592	
O		5.21428665		15.62328875		4.94202861		-0.00007720		 0.00010533		-0.00006592	
O		5.21428665		2.42371167		4.94202861		-0.00007720		-0.00010533		-0.00006592	
O		3.26959224		15.62328875		0.54423823		 0.00007720		 0.00010533		 0.00006592	
O		8.17859310		11.44721237		0.54423823		-0.00000900		-0.00018053		 0.00010590	
O		0.30528678		6.59978805		4.94202861		 0.00000900		 0.00018053		-0.00010590	
O		0.30528678		11.44721237		4.94202861		 0.00000900		-0.00018053		-0.00010590	
O		8.17859310		6.59978805		0.54423823		-0.00000900		 0.00018053		 0.00010590	
Ca		-0.66706043		5.00984644		2.74313244		0.00000000		-0.00010570		0.00000000	
Ca		-0.66706043		13.03715398		2.74313244		0.00000000		 0.00010570		0.00000000	
Ca		4.24193944		14.03334812		2.74313244		0.00000000		-0.00015561		0.00000000	
Ca		4.24193944		4.01365328		2.74313244		0.00000000		 0.00015561		0.00000000	
Mg		0.00000000		0.00000000		0.00000000		0.00000000		0.00000000		0.00000000	
Mg		4.90899987		9.02349972		0.00000000		0.00000000		0.00000000		0.00000000	
Mg		0.00000000		3.18709944		0.00000000		0.00000000		-0.00066739		0.00000000	
Mg		0.00000000		14.85990098		0.00000000		0.00000000		 0.00066739		0.00000000	
Mg		4.90899987		12.21060014		0.00000000		0.00000000		-0.00067748		0.00000000	
Mg		4.90899987		5.83640028		0.00000000		0.00000000		 0.00067748		0.00000000	
Mg		-0.66706043		1.58452698		2.74313244		0.00000000		-0.00012612		0.00000000	
Mg		-0.66706043		16.46247344		2.74313244		0.00000000		 0.00012612		0.00000000	
Mg		4.24193944		10.60802768		2.74313244		0.00000000		 0.00001576		0.00000000	
Mg		4.24193944		7.43897372		2.74313244		0.00000000		-0.00001576		0.00000000	
H		0.92650893		0.00000000		4.22442512		 0.00028136		-0.00000000		 0.00029471	
H		7.55736996		0.00000000		1.26184075		-0.00028136		-0.00000000		-0.00029471	
H		5.83550880		9.02349972		4.22442512		 0.00040091		0.00000000		 0.00032591	
H		2.64837009		9.02349972		1.26184075		-0.00040091		0.00000000		-0.00032591	
