# total energy = -44011.1750084 eV	

CRYSTAL	
PRIMVEC	
		9.81799975		0.00000000		0.00000000	
		0.00000000		18.04700533		0.00000000	
		-1.33411890		0.00000000		4.84832464	
PRIMCOORD
   82 1	
Si		2.35753443		1.51594825		1.43704491		-0.00006093		-0.00021090		 0.00015802	
Si		6.12634446		16.53105217		3.41128365		 0.00006093		 0.00021090		-0.00015802	
Si		6.12634446		1.51594825		3.41128365		 0.00006093		-0.00021090		-0.00015802	
Si		2.35753443		16.53105217		1.43704491		-0.00006093		 0.00021090		 0.00015802	
Si		7.26653430		10.53944797		1.43704491		 0.00002049		-0.00015995		 0.00019442	
Si		1.21734557		7.50755245		3.41128365		-0.00002049		 0.00015995		-0.00019442	
Si		1.21734557		10.53944797		3.41128365		-0.00002049		-0.00015995		-0.00019442	
Si		7.26653430		7.50755245		1.43704491		 0.00002049		 0.00015995		 0.00019442	
Si		1.76155730		3.08784241		3.89902617		 0.00013865		 0.00030367		-0.00004169	
Si		6.72232257		14.95915899		0.94930338		-0.00013865		-0.00030367		 0.00004169	
Si		6.72232257		3.08784241		0.94930338		-0.00013865		 0.00030367		 0.00004169	
Si		1.76155730		14.95915899		3.89902617		 0.00013865		-0.00030367		-0.00004169	
Si		6.67055717		12.11134311		3.89902617		 0.00022528		 0.00040999		-0.00003454	
Si		1.81332172		5.93565829		0.94930338		-0.00022528		-0.00040999		 0.00003454	
Si		1.81332172		12.11134311		0.94930338		-0.00022528		 0.00040999		 0.00003454	
Si		6.67055717		5.93565829		3.89902617		 0.00022528		-0.00040999		-0.00003454	
O		2.58846753		2.13856947		2.85275630		-0.00054016		 0.00008407		 0.00017562	
O		5.89541038		15.90843095		1.99557227		 0.00054016		-0.00008407		-0.00017562	
O		5.89541038		2.13856947		1.99557227		 0.00054016		 0.00008407		-0.00017562	
O		2.58846753		15.90843095		2.85275630		-0.00054016		-0.00008407		 0.00017562	
O		7.49746838		11.16207017		2.85275630		-0.00055269		 0.00008451		 0.00013927	
O		0.98641051		6.88493123		1.99557227		 0.00055269		-0.00008451		-0.00013927	
O		0.98641051		11.16207017		1.99557227		 0.00055269		 0.00008451		-0.00013927	
O		7.49746838		6.88493123		2.85275630		-0.00055269		-0.00008451		 0.00013927	
O		0.80703271		1.55204216		1.05257204		 0.00006082		-0.00033367		-0.00021241	
O		7.67684716		16.49495727		3.79575554		-0.00006082		 0.00033367		 0.00021241	
O		7.67684716		1.55204216		3.79575554		-0.00006082		-0.00033367		 0.00021241	
O		0.80703271		16.49495727		1.05257204		 0.00006082		 0.00033367		-0.00021241	
O		5.71603258		10.57554286		1.05257204		 0.00003986		-0.00041346		-0.00019836	
O		2.76784729		7.47145756		3.79575554		-0.00003986		 0.00041346		 0.00019836	
O		2.76784729		10.57554286		3.79575554		-0.00003986		-0.00041346		 0.00019836	
O		5.71603258		7.47145756		1.05257204		 0.00003986		 0.00041346		-0.00019836	
O		2.52914030		4.47565595		3.84617882		-0.00023427		 0.00026039		-0.00034899	
O		5.95473957		13.57134349		1.00214974		 0.00023427		-0.00026039		 0.00034899	
O		5.95473957		4.47565595		1.00214974		 0.00023427		 0.00026039		 0.00034899	
O		2.52914030		13.57134349		3.84617882		-0.00023427		-0.00026039		-0.00034899	
O		7.43813919		13.49915665		3.84617882		-0.00030217		 0.00008597		-0.00039611	
O		1.04573970		4.54784377		1.00214974		 0.00030217		-0.00008597		 0.00039611	
O		1.04573970		13.49915665		1.00214974		 0.00030217		 0.00008597		 0.00039611	
O		7.43813919		4.54784377		3.84617882		-0.00030217		-0.00008597		-0.00039611	
O		2.91896987		0.00000000		1.41619737		-0.00087662		0.00000000		 0.00057929	
O		5.56491000		0.00000000		3.43213217		 0.00087662		0.00000000		-0.00057929	
O		7.82796876		9.02349972		1.41619737		-0.00093222		0.00000000		 0.00057416	
O		0.65591013		9.02349972		3.43213217		 0.00093222		0.00000000		-0.00057416	
O		0.19753030		3.08964696		3.51019018		 0.00002925		 0.00021350		-0.00011601	
O		8.28634957		14.95735346		1.33813937		-0.00002925		-0.00021350		 0.00011601	
O		8.28634957		3.08964696		1.33813937		-0.00002925		 0.00021350		 0.00011601	
O		0.19753030		14.95735346		3.51019018		 0.00002925		-0.00021350		-0.00011601	
O		5.10653018		12.11314766		3.51019018		-0.00007412		 0.00012247		-0.00015227	
O		3.37734970		5.93385374		1.33813937		 0.00007412		-0.00012247		 0.00015227	
O		3.37734970		12.11314766		1.33813937		 0.00007412		 0.00012247		 0.00015227	
O		5.10653018		5.93385374		3.51019018		-0.00007412		-0.00012247		-0.00015227	
O		0.12189047		0.00000000		3.46752508		-0.00034583		0.00000000		 0.00019406	
O		8.36198940		0.00000000		1.38080348		 0.00034583		0.00000000		-0.00019406	
O		5.03089034		9.02349972		3.46752508		-0.00020577		-0.00000000		 0.00026046	
O		3.45298953		9.02349972		1.38080348		 0.00020577		-0.00000000		-0.00026046	
O		3.26959224		2.42371167		0.48095435		-0.00065697		 0.00009769		 0.00000852	
O		5.21428665		15.62328875		4.36737421		 0.00065697		-0.00009769		-0.00000852	
O		5.21428665		2.42371167		4.36737421		 0.00065697		 0.00009769		-0.00000852	
O		3.26959224		15.62328875		0.48095435		-0.00065697		-0.00009769		 0.00000852	
O		8.17859310		11.44721237		0.48095435		-0.00067544		 0.00006452		 0.00002939	
O		0.30528678		6.59978805		4.36737421		 0.00067544		-0.00006452		-0.00002939	
O		0.30528678		11.44721237		4.36737421		 0.00067544		 0.00006452		-0.00002939	
O		8.17859310		6.59978805		0.48095435		-0.00067544		-0.00006452		 0.00002939	
Ca		-0.66706043		5.00984644		2.42416428		0.00000000		 0.00034429		0.00000000	
Ca		-0.66706043		13.03715398		2.42416428		0.00000000		-0.00034429		0.00000000	
Ca		4.24193944		14.03334812		2.42416428		0.00000000		 0.00038370		0.00000000	
Ca		4.24193944		4.01365328		2.42416428		0.00000000		-0.00038370		0.00000000	
Mg		0.00000000		0.00000000		0.00000000		0.00000000		0.00000000		0.00000000	
Mg		4.90899987		9.02349972		0.00000000		0.00000000		0.00000000		0.00000000	
Mg		0.00000000		3.18709944		0.00000000		0.00000000		-0.00054302		0.00000000	
Mg		0.00000000		14.85990098		0.00000000		0.00000000		 0.00054302		0.00000000	
Mg		4.90899987		12.21060014		0.00000000		0.00000000		-0.00083282		0.00000000	
Mg		4.90899987		5.83640028		0.00000000		0.00000000		 0.00083282		0.00000000	
Mg		-0.66706043		1.58452698		2.42416428		0.00000000		-0.00071108		0.00000000	
Mg		-0.66706043		16.46247344		2.42416428		0.00000000		 0.00071108		0.00000000	
Mg		4.24193944		10.60802768		2.42416428		0.00000000		-0.00068046		0.00000000	
Mg		4.24193944		7.43897372		2.42416428		0.00000000		 0.00068046		0.00000000	
H		0.92650893		0.00000000		3.73321292		 0.00043769		-0.00000000		 0.00080301	
H		7.55736996		0.00000000		1.11511565		-0.00043769		-0.00000000		-0.00080301	
H		5.83550880		9.02349972		3.73321292		 0.00036715		0.00000000		 0.00078167	
H		2.64837009		9.02349972		1.11511565		-0.00036715		0.00000000		-0.00078167	
