# total energy = -44006.2688304 eV	

CRYSTAL	
PRIMVEC	
		9.81799975		0.00000000		0.00000000	
		0.00000000		18.04700533		0.00000000	
		-1.33411890		0.00000000		4.59315482	
PRIMCOORD
   82 1	
Si		2.35753443		1.51594825		1.36141097		 0.00001522		 0.00039260		 0.00057588	
Si		6.12634446		16.53105217		3.23174287		-0.00001522		-0.00039260		-0.00057588	
Si		6.12634446		1.51594825		3.23174287		-0.00001522		 0.00039260		-0.00057588	
Si		2.35753443		16.53105217		1.36141097		 0.00001522		-0.00039260		 0.00057588	
Si		7.26653430		10.53944797		1.36141097		 0.00013065		 0.00047067		 0.00062110	
Si		1.21734557		7.50755245		3.23174287		-0.00013065		-0.00047067		-0.00062110	
Si		1.21734557		10.53944797		3.23174287		-0.00013065		 0.00047067		-0.00062110	
Si		7.26653430		7.50755245		1.36141097		 0.00013065		-0.00047067		 0.00062110	
Si		1.76155730		3.08784241		3.69381426		-0.00063368		-0.00007747		 0.00027758	
Si		6.72232257		14.95915899		0.89933860		 0.00063368		 0.00007747		-0.00027758	
Si		6.72232257		3.08784241		0.89933860		 0.00063368		-0.00007747		-0.00027758	
Si		1.76155730		14.95915899		3.69381426		-0.00063368		 0.00007747		 0.00027758	
Si		6.67055717		12.11134311		3.69381426		-0.00039220		 0.00013413		 0.00028132	
Si		1.81332172		5.93565829		0.89933860		 0.00039220		-0.00013413		-0.00028132	
Si		1.81332172		12.11134311		0.89933860		 0.00039220		 0.00013413		-0.00028132	
Si		6.67055717		5.93565829		3.69381426		-0.00039220		-0.00013413		 0.00028132	
O		2.58846753		2.13856947		2.70261061		 0.00080576		 0.00015378		 0.00003933	
O		5.89541038		15.90843095		1.89054225		-0.00080576		-0.00015378		-0.00003933	
O		5.89541038		2.13856947		1.89054225		-0.00080576		 0.00015378		-0.00003933	
O		2.58846753		15.90843095		2.70261061		 0.00080576		-0.00015378		 0.00003933	
O		7.49746838		11.16207017		2.70261061		 0.00081592		 0.00004630		-0.00002339	
O		0.98641051		6.88493123		1.89054225		-0.00081592		-0.00004630		 0.00002339	
O		0.98641051		11.16207017		1.89054225		-0.00081592		 0.00004630		 0.00002339	
O		7.49746838		6.88493123		2.70261061		 0.00081592		-0.00004630		-0.00002339	
O		0.80703271		1.55204216		0.99717398		-0.00059219		-0.00024033		 0.00001660	
O		7.67684716		16.49495727		3.59597986		 0.00059219		 0.00024033		-0.00001660	
O		7.67684716		1.55204216		3.59597986		 0.00059219		-0.00024033		-0.00001660	
O		0.80703271		16.49495727		0.99717398		-0.00059219		 0.00024033		 0.00001660	
O		5.71603258		10.57554286		0.99717398		-0.00067578		-0.00021532		-0.00002095	
O		2.76784729		7.47145756		3.59597986		 0.00067578		 0.00021532		 0.00002095	
O		2.76784729		10.57554286		3.59597986		 0.00067578		-0.00021532		 0.00002095	
O		5.71603258		7.47145756		0.99717398		-0.00067578		 0.00021532		-0.00002095	
O		2.52914030		4.47565595		3.64374836		 0.00009596		 0.00047583		 0.00074743	
O		5.95473957		13.57134349		0.94940450		-0.00009596		-0.00047583		-0.00074743	
O		5.95473957		4.47565595		0.94940450		-0.00009596		 0.00047583		-0.00074743	
O		2.52914030		13.57134349		3.64374836		 0.00009596		-0.00047583		 0.00074743	
O		7.43813919		13.49915665		3.64374836		-0.00003568		 0.00033939		 0.00076618	
O		1.04573970		4.54784377		0.94940450		 0.00003568		-0.00033939		-0.00076618	
O		1.04573970		13.49915665		0.94940450		 0.00003568		 0.00033939		-0.00076618	
O		7.43813919		4.54784377		3.64374836		-0.00003568		-0.00033939		 0.00076618	
O		2.91896987		0.00000000		1.34166010		 0.00078676		0.00000000		-0.00019028	
O		5.56491000		0.00000000		3.25149276		-0.00078676		0.00000000		 0.00019028	
O		7.82796876		9.02349972		1.34166010		 0.00086031		-0.00000000		-0.00019475	
O		0.65591013		9.02349972		3.25149276		-0.00086031		-0.00000000		 0.00019475	
O		0.19753030		3.08964696		3.32544291		-0.00021914		 0.00025779		-0.00015877	
O		8.28634957		14.95735346		1.26770995		 0.00021914		-0.00025779		 0.00015877	
O		8.28634957		3.08964696		1.26770995		 0.00021914		 0.00025779		 0.00015877	
O		0.19753030		14.95735346		3.32544291		-0.00021914		-0.00025779		-0.00015877	
O		5.10653018		12.11314766		3.32544291		-0.00032980		 0.00023908		-0.00018744	
O		3.37734970		5.93385374		1.26770995		 0.00032980		-0.00023908		 0.00018744	
O		3.37734970		12.11314766		1.26770995		 0.00032980		 0.00023908		 0.00018744	
O		5.10653018		5.93385374		3.32544291		-0.00032980		-0.00023908		-0.00018744	
O		0.12189047		0.00000000		3.28502319		-0.00023222		0.00000000		 0.00041260	
O		8.36198940		0.00000000		1.30812967		 0.00023222		0.00000000		-0.00041260	
O		5.03089034		9.02349972		3.28502319		-0.00039301		0.00000000		 0.00034901	
O		3.45298953		9.02349972		1.30812967		 0.00039301		0.00000000		-0.00034901	
O		3.26959224		2.42371167		0.45564060		 0.00001823		 0.00014434		-0.00005548	
O		5.21428665		15.62328875		4.13751225		-0.00001823		-0.00014434		 0.00005548	
O		5.21428665		2.42371167		4.13751225		-0.00001823		 0.00014434		 0.00005548	
O		3.26959224		15.62328875		0.45564060		 0.00001823		-0.00014434		-0.00005548	
O		8.17859310		11.44721237		0.45564060		-0.00006131		 0.00004344		-0.00000771	
O		0.30528678		6.59978805		4.13751225		 0.00006131		-0.00004344		 0.00000771	
O		0.30528678		11.44721237		4.13751225		 0.00006131		 0.00004344		 0.00000771	
O		8.17859310		6.59978805		0.45564060		-0.00006131		-0.00004344		-0.00000771	
Ca		-0.66706043		5.00984644		2.29657741		0.00000000		 0.00012210		0.00000000	
Ca		-0.66706043		13.03715398		2.29657741		0.00000000		-0.00012210		0.00000000	
Ca		4.24193944		14.03334812		2.29657741		0.00000000		 0.00010004		0.00000000	
Ca		4.24193944		4.01365328		2.29657741		0.00000000		-0.00010004		0.00000000	
Mg		0.00000000		0.00000000		0.00000000		0.00000000		0.00000000		0.00000000	
Mg		4.90899987		9.02349972		0.00000000		0.00000000		0.00000000		0.00000000	
Mg		0.00000000		3.18709944		0.00000000		0.00000000		-0.00008488		0.00000000	
Mg		0.00000000		14.85990098		0.00000000		0.00000000		 0.00008488		0.00000000	
Mg		4.90899987		12.21060014		0.00000000		0.00000000		 0.00007774		0.00000000	
Mg		4.90899987		5.83640028		0.00000000		0.00000000		-0.00007774		0.00000000	
Mg		-0.66706043		1.58452698		2.29657741		0.00000000		-0.00023346		0.00000000	
Mg		-0.66706043		16.46247344		2.29657741		0.00000000		 0.00023346		0.00000000	
Mg		4.24193944		10.60802768		2.29657741		0.00000000		-0.00027275		0.00000000	
Mg		4.24193944		7.43897372		2.29657741		0.00000000		 0.00027275		0.00000000	
H		0.92650893		0.00000000		3.53672823		-0.00084825		-0.00000000		 0.00013131	
H		7.55736996		0.00000000		1.05642463		 0.00084825		-0.00000000		-0.00013131	
H		5.83550880		9.02349972		3.53672823		-0.00072655		-0.00000000		 0.00017956	
H		2.64837009		9.02349972		1.05642463		 0.00072655		-0.00000000		-0.00017956	
