# total energy = -24716.2204369 eV

CRYSTAL
PRIMVEC
		9.73685995		0.00000000		0.00000000
		0.00000000		8.72660231		0.00000000
		0.00000000		0.00000000		5.32170028
PRIMECORD
   40 1
Mg		0.00000000		7.89582713		1.33042507		-0.00000000		 0.00009124		0.00000000
Mg		0.00000000		0.83077226		3.99127521		0.00000000		-0.00009124		-0.00000000
Mg		4.86842998		5.19407244		3.99127521		0.00000000		-0.00009124		0.00000000
Mg		4.86842998		3.53252792		1.33042507		0.00000000		 0.00009124		-0.00000000
Mg		0.00000000		2.30993079		1.33042507		0.00000000		 0.00066331		-0.00000000
Mg		0.00000000		6.41666860		3.99127521		0.00000000		-0.00066331		-0.00000000
Mg		4.86842998		2.05336939		3.99127521		0.00000000		-0.00066331		-0.00000000
Mg		4.86842998		6.67323097		1.33042507		0.00000000		 0.00066331		-0.00000000
Si		2.84121573		0.79935725		0.35442462		 0.00046538		-0.00033860		-0.00029393
Si		6.89564422		7.92724311		4.96727468		-0.00046538		 0.00033860		 0.00029393
Si		2.02721424		3.56394293		3.01527476		-0.00046538		 0.00033860		-0.00029393
Si		7.70964571		5.16265549		2.30642454		 0.00046538		-0.00033860		 0.00029393
Si		6.89564422		0.79935725		2.30642454		-0.00046538		-0.00033860		 0.00029393
Si		2.84121573		7.92724311		3.01527476		 0.00046538		 0.00033860		-0.00029393
Si		7.70964571		3.56394293		4.96727468		 0.00046538		 0.00033860		 0.00029393
Si		2.02721424		5.16265549		0.35442462		-0.00046538		-0.00033860		-0.00029393
O		1.14213367		0.81680960		0.42147946		 0.00026313		-0.00040624		-0.00042920
O		8.59472725		7.90978979		4.90022082		-0.00026313		 0.00040624		 0.00042920
O		3.72629630		3.54648961		3.08232862		-0.00026313		 0.00040624		-0.00042920
O		6.01056267		5.18010881		2.23937068		 0.00026313		-0.00040624		 0.00042920
O		8.59472725		0.81680960		2.23937068		-0.00026313		-0.00040624		 0.00042920
O		1.14213367		7.90978979		3.08232862		 0.00026313		 0.00040624		-0.00042920
O		6.01056267		3.54648961		4.90022082		 0.00026313		 0.00040624		 0.00042920
O		3.72629630		5.18010881		0.42147946		-0.00026313		-0.00040624		-0.00042920
O		3.66787514		2.18688609		0.37251863		 0.00072056		-0.00064446		 0.00040954
O		6.06898383		6.53971428		4.94918068		-0.00072056		 0.00064446		-0.00040954
O		1.20055483		2.17641409		3.03336877		-0.00072056		 0.00064446		 0.00040954
O		8.53630609		6.55018627		2.28833054		 0.00072056		-0.00064446		-0.00040954
O		6.06898383		2.18688609		2.28833054		-0.00072056		-0.00064446		-0.00040954
O		3.66787514		6.53971428		3.03336877		 0.00072056		 0.00064446		 0.00040954
O		8.53630609		2.17641409		4.94918068		 0.00072056		 0.00064446		-0.00040954
O		1.20055483		6.55018627		0.37251863		-0.00072056		-0.00064446		 0.00040954
O		3.40984835		8.50232640		1.53903632		-0.00016856		 0.00023346		 0.00000733
O		6.32701160		0.22427299		3.78266396		 0.00016856		-0.00023346		-0.00000733
O		1.45858162		4.58757317		4.19988646		 0.00016856		-0.00023346		 0.00000733
O		8.27827833		4.13902622		1.12181382		-0.00016856		 0.00023346		-0.00000733
O		6.32701160		8.50232640		1.12181382		 0.00016856		 0.00023346		-0.00000733
O		3.40984835		0.22427299		4.19988646		-0.00016856		-0.00023346		 0.00000733
O		8.27827833		4.58757317		3.78266396		-0.00016856		-0.00023346		-0.00000733
O		1.45858162		4.13902622		1.53903632		 0.00016856		 0.00023346		 0.00000733
