# total energy = -24716.6153958 eV

CRYSTAL
PRIMVEC
		9.50503007		0.00000000		0.00000000
		0.00000000		8.72659662		0.00000000
		0.00000000		0.00000000		5.32170475
PRIMECORD
   40 1
Mg		0.00000000		7.89582752		1.33042476		0.00000000		-0.00074613		0.00000000
Mg		0.00000000		0.83077194		3.99127523		0.00000000		 0.00074613		0.00000000
Mg		4.75251503		5.19407215		3.99127523		0.00000000		 0.00074613		0.00000000
Mg		4.75251503		3.53252827		1.33042476		0.00000000		-0.00074613		-0.00000000
Mg		0.00000000		2.30993142		1.33042476		0.00000000		 0.00009727		0.00000000
Mg		0.00000000		6.41666900		3.99127523		0.00000000		-0.00009727		0.00000000
Mg		4.75251503		2.05336879		3.99127523		0.00000000		-0.00009727		0.00000000
Mg		4.75251503		6.67323068		1.33042476		0.00000000		 0.00009727		0.00000000
Si		2.77356777		0.79935687		0.35442546		 0.00020846		 0.00039389		-0.00054878
Si		6.73146229		7.92724260		4.96727548		-0.00020846		-0.00039389		 0.00054878
Si		1.97894726		3.56394334		3.01527498		-0.00020846		-0.00039389		-0.00054878
Si		7.52608281		5.16265613		2.30642501		 0.00020846		 0.00039389		 0.00054878
Si		6.73146229		0.79935687		2.30642501		-0.00020846		 0.00039389		 0.00054878
Si		2.77356777		7.92724260		3.01527498		 0.00020846		-0.00039389		-0.00054878
Si		7.52608281		3.56394334		4.96727548		 0.00020846		-0.00039389		 0.00054878
Si		1.97894726		5.16265613		0.35442546		-0.00020846		 0.00039389		-0.00054878
O		1.11494003		0.81681001		0.42147870		 0.00047160		-0.00061963		 0.00003632
O		8.39009004		7.90979041		4.90022130		-0.00047160		 0.00061963		-0.00003632
O		3.63757501		3.54649020		3.08232917		-0.00047160		 0.00061963		 0.00003632
O		5.86745506		5.18010927		2.23937083		 0.00047160		-0.00061963		-0.00003632
O		8.39009004		0.81681001		2.23937083		-0.00047160		-0.00061963		-0.00003632
O		1.11494003		7.90979041		3.08232917		 0.00047160		 0.00061963		 0.00003632
O		5.86745506		3.54649020		4.90022130		 0.00047160		 0.00061963		-0.00003632
O		3.63757501		5.18010927		0.42147870		-0.00047160		-0.00061963		 0.00003632
O		3.58054483		2.18688595		0.37251924		-0.00010734		 0.00075702		 0.00045502
O		5.92448524		6.53971447		4.94918076		 0.00010734		-0.00075702		-0.00045502
O		1.17197021		2.17641426		3.03336876		 0.00010734		-0.00075702		 0.00045502
O		8.33305986		6.55018616		2.28833124		-0.00010734		 0.00075702		-0.00045502
O		5.92448524		2.18688595		2.28833124		 0.00010734		 0.00075702		-0.00045502
O		3.58054483		6.53971447		3.03336876		-0.00010734		-0.00075702		 0.00045502
O		8.33305986		2.17641426		4.94918076		-0.00010734		-0.00075702		-0.00045502
O		1.17197021		6.55018616		0.37251924		 0.00010734		 0.00075702		 0.00045502
O		3.32866058		8.50232638		1.53903641		-0.00047414		-0.00030310		-0.00063215
O		6.17636949		0.22427309		3.78266359		 0.00047414		 0.00030310		 0.00063215
O		1.42385445		4.58757330		4.19988593		 0.00047414		 0.00030310		-0.00063215
O		8.08117751		4.13902617		1.12181406		-0.00047414		-0.00030310		 0.00063215
O		6.17636949		8.50232638		1.12181406		 0.00047414		-0.00030310		 0.00063215
O		3.32866058		0.22427309		4.19988593		-0.00047414		 0.00030310		-0.00063215
O		8.08117751		4.58757330		3.78266359		-0.00047414		 0.00030310		 0.00063215
O		1.42385445		4.13902617		1.53903641		 0.00047414		-0.00030310		-0.00063215
