# total energy = -24715.4671615 eV

CRYSTAL
PRIMVEC
		8.80953988		0.00000000		0.00000000
		0.00000000		8.72659806		0.00000000
		0.00000000		0.00000000		5.32170209
PRIMECORD
   40 1
Mg		0.00000000		7.89582674		1.33042464		0.00000000		 0.00059329		0.00000000
Mg		0.00000000		0.83077221		3.99127480		0.00000000		-0.00059329		0.00000000
Mg		4.40476994		5.19407212		3.99127480		0.00000000		-0.00059329		0.00000000
Mg		4.40476994		3.53252771		1.33042464		0.00000000		 0.00059329		0.00000000
Mg		0.00000000		2.30993095		1.33042464		0.00000000		-0.00090995		0.00000000
Mg		0.00000000		6.41666887		3.99127480		0.00000000		 0.00090995		0.00000000
Mg		4.40476994		2.05336896		3.99127480		0.00000000		 0.00090995		0.00000000
Mg		4.40476994		6.67323086		1.33042464		0.00000000		-0.00090995		0.00000000
Si		2.57062374		0.79935739		0.35442541		-0.00087719		-0.00025360		 0.00054940
Si		6.23891614		7.92724332		4.96727492		 0.00087719		 0.00025360		-0.00054940
Si		1.83414620		3.56394253		3.01527469		 0.00087719		 0.00025360		 0.00054940
Si		6.97539368		5.16265554		2.30642476		-0.00087719		-0.00025360		-0.00054940
Si		6.23891614		0.79935739		2.30642476		 0.00087719		-0.00025360		-0.00054940
Si		2.57062374		7.92724332		3.01527469		-0.00087719		 0.00025360		 0.00054940
Si		6.97539368		3.56394253		4.96727492		-0.00087719		 0.00025360		-0.00054940
Si		1.83414620		5.16265554		0.35442541		 0.00087719		-0.00025360		 0.00054940
O		1.03335903		0.81680997		0.42147922		-0.00058175		 0.00035306		 0.00005629
O		7.77618085		7.90978986		4.90022111		 0.00058175		-0.00035306		-0.00005629
O		3.37141091		3.54648995		3.08232938		 0.00058175		-0.00035306		 0.00005629
O		5.43812897		5.18010900		2.23937094		-0.00058175		 0.00035306		-0.00005629
O		7.77618085		0.81680997		2.23937094		 0.00058175		 0.00035306		-0.00005629
O		1.03335903		7.90978986		3.08232938		-0.00058175		-0.00035306		 0.00005629
O		5.43812897		3.54648995		4.90022111		-0.00058175		-0.00035306		-0.00005629
O		3.37141091		5.18010900		0.42147922		 0.00058175		 0.00035306		 0.00005629
O		3.31855367		2.18688635		0.37251932		-0.00045866		-0.00003262		-0.00021200
O		5.49098621		6.53971348		4.94918100		 0.00045866		 0.00003262		 0.00021200
O		1.08621627		2.17641357		3.03336860		 0.00045866		 0.00003262		-0.00021200
O		7.72332361		6.55018626		2.28833084		-0.00045866		-0.00003262		 0.00021200
O		5.49098621		2.18688635		2.28833084		 0.00045866		-0.00003262		 0.00021200
O		3.31855367		6.53971348		3.03336860		-0.00045866		 0.00003262		-0.00021200
O		7.72332361		2.17641357		4.94918100		-0.00045866		 0.00003262		 0.00021200
O		1.08621627		6.55018626		0.37251932		 0.00045866		-0.00003262		-0.00021200
O		3.08510087		8.50232568		1.53903631		-0.00002840		-0.00040851		 0.00010923
O		5.72443901		0.22427327		3.78266402		 0.00002840		 0.00040851		-0.00010923
O		1.31966907		4.58757318		4.19988559		 0.00002840		 0.00040851		 0.00010923
O		7.48987081		4.13902576		1.12181386		-0.00002840		-0.00040851		-0.00010923
O		5.72443901		8.50232568		1.12181386		 0.00002840		-0.00040851		-0.00010923
O		3.08510087		0.22427327		4.19988559		-0.00002840		 0.00040851		 0.00010923
O		7.48987081		4.58757318		3.78266402		-0.00002840		 0.00040851		-0.00010923
O		1.31966907		4.13902576		1.53903631		 0.00002840		-0.00040851		 0.00010923
