# total energy = -24714.165885 eV

CRYSTAL
PRIMVEC
		8.57770999		0.00000000		0.00000000
		0.00000000		8.72660188		0.00000000
		0.00000000		0.00000000		5.32169706
PRIMECORD
   40 1
Mg		0.00000000		7.89582665		1.33042512		0.00000000		 0.00010871		0.00000000
Mg		0.00000000		0.83077180		3.99127537		0.00000000		-0.00010871		0.00000000
Mg		4.28885500		5.19407188		3.99127537		0.00000000		-0.00010871		0.00000000
Mg		4.28885500		3.53252829		1.33042512		0.00000000		 0.00010871		-0.00000000
Mg		0.00000000		2.30993098		1.33042512		0.00000000		-0.00092134		-0.00000000
Mg		0.00000000		6.41666919		3.99127537		0.00000000		 0.00092134		0.00000000
Mg		4.28885500		2.05336910		3.99127537		0.00000000		 0.00092134		-0.00000000
Mg		4.28885500		6.67323107		1.33042512		0.00000000		-0.00092134		0.00000000
Si		2.50297578		0.79935679		0.35442497		-0.00056765		 0.00001461		 0.00057713
Si		6.07473422		7.92724337		4.96727466		 0.00056765		-0.00001461		-0.00057713
Si		1.78587922		3.56394329		3.01527522		 0.00056765		-0.00001461		 0.00057713
Si		6.79183077		5.16265602		2.30642527		-0.00056765		 0.00001461		-0.00057713
Si		6.07473422		0.79935679		2.30642527		 0.00056765		 0.00001461		-0.00057713
Si		2.50297578		7.92724337		3.01527522		-0.00056765		-0.00001461		 0.00057713
Si		6.79183077		3.56394329		4.96727466		-0.00056765		-0.00001461		-0.00057713
Si		1.78587922		5.16265602		0.35442497		 0.00056765		 0.00001461		 0.00057713
O		1.00616538		0.81680986		0.42147865		-0.00062991		 0.00011681		-0.00023952
O		7.57154461		7.90979031		4.90022098		 0.00062991		-0.00011681		 0.00023952
O		3.28268961		3.54649022		3.08232889		 0.00062991		-0.00011681		-0.00023952
O		5.29502038		5.18010909		2.23937074		-0.00062991		 0.00011681		 0.00023952
O		7.57154461		0.81680986		2.23937074		 0.00062991		 0.00011681		 0.00023952
O		1.00616538		7.90979031		3.08232889		-0.00062991		-0.00011681		-0.00023952
O		5.29502038		3.54649022		4.90022098		-0.00062991		-0.00011681		 0.00023952
O		3.28268961		5.18010909		0.42147865		 0.00062991		 0.00011681		-0.00023952
O		3.23122335		2.18688631		0.37251879		-0.00066907		-0.00012554		-0.00045587
O		5.34648578		6.53971386		4.94918084		 0.00066907		 0.00012554		 0.00045587
O		1.05763164		2.17641378		3.03336904		 0.00066907		 0.00012554		-0.00045587
O		7.52007921		6.55018639		2.28833059		-0.00066907		-0.00012554		 0.00045587
O		5.34648578		2.18688631		2.28833059		 0.00066907		-0.00012554		 0.00045587
O		3.23122335		6.53971386		3.03336904		-0.00066907		 0.00012554		-0.00045587
O		7.52007921		2.17641378		4.94918084		-0.00066907		 0.00012554		 0.00045587
O		1.05763164		6.55018639		0.37251879		 0.00066907		-0.00012554		-0.00045587
O		3.00391404		8.50232565		1.53903589		-0.00069088		-0.00030593		 0.00023758
O		5.57379595		0.22427281		3.78266374		 0.00069088		 0.00030593		-0.00023758
O		1.28494096		4.58757289		4.19988613		 0.00069088		 0.00030593		 0.00023758
O		7.29276904		4.13902642		1.12181436		-0.00069088		-0.00030593		-0.00023758
O		5.57379595		8.50232565		1.12181436		 0.00069088		-0.00030593		-0.00023758
O		3.00391404		0.22427281		4.19988613		-0.00069088		 0.00030593		 0.00023758
O		7.29276904		4.58757289		3.78266374		-0.00069088		 0.00030593		-0.00023758
O		1.28494096		4.13902642		1.53903589		 0.00069088		-0.00030593		 0.00023758
