# total energy = -7715.05011675 eV

CRYSTAL
PRIMVEC
		4.44601767		-0.35568052		0.00000000
		-0.35568052		4.44601767		0.00000000
		0.00000000		0.00000000		4.44601767
PRIMECORD
   8 1
Ca		0.00000000		0.00000000		0.00000000		0.00000000		0.00000000		0.00000000
Mg		-0.17784115		2.22300972		2.22300972		0.00000000		0.00000000		0.00000000
Mg		2.22300972		-0.17784115		2.22300972		0.00000000		0.00000000		0.00000000
Mg		2.04516902		2.04516902		0.00000000		0.00000000		0.00000000		0.00000000
O		0.00000000		0.00000000		2.22300972		0.00000000		0.00000000		0.00000000
O		2.22300972		-0.17784115		0.00000000		0.00000000		0.00000000		0.00000000
O		-0.17784115		2.22300972		0.00000000		0.00000000		0.00000000		0.00000000
O		2.04516902		2.04516902		2.22300972		0.00000000		0.00000000		0.00000000
