# total energy = -7712.54854427 eV

CRYSTAL
PRIMVEC
		4.44602048		0.71136076		0.00000000
		0.71136076		4.44602048		0.00000000
		0.00000000		0.00000000		4.44602048
PRIMECORD
   8 1
Ca		0.00000000		0.00000000		0.00000000		0.00000000		0.00000000		0.00000000
Mg		0.35568218		2.22300979		2.22300979		0.00000000		0.00000000		0.00000000
Mg		2.22300979		0.35568218		2.22300979		0.00000000		0.00000000		0.00000000
Mg		2.57869107		2.57869107		0.00000000		0.00000000		0.00000000		0.00000000
O		0.00000000		0.00000000		2.22300979		0.00000000		0.00000000		0.00000000
O		2.22300979		0.35568218		0.00000000		0.00000000		0.00000000		0.00000000
O		0.35568218		2.22300979		0.00000000		0.00000000		0.00000000		0.00000000
O		2.57869107		2.57869107		2.22300979		0.00000000		0.00000000		0.00000000
