# total energy = -11145.9297486 eV

CRYSTAL
PRIMVEC
		7.44099778		0.00000000		0.59527833
		0.00000000		4.41000132		0.00000000
		0.66335706		0.00000000		8.29199684
PRIMECORD
   12 1
Ca		0.59700120		1.10249996		5.65575326		-0.00066845		0.00000000		 0.00048805
Ca		7.50735887		3.30749987		3.23152565		 0.00066845		0.00000000		-0.00048805
Ca		3.69487830		3.30749987		1.78411809		 0.00024562		0.00000000		 0.00030473
Ca		4.40948177		1.10249996		7.10316156		-0.00024562		0.00000000		-0.00030473
Si		2.26925220		1.10249996		3.35847158		 0.00068559		0.00000000		-0.00068911
Si		5.83510787		3.30749987		5.52880807		-0.00068559		0.00000000		 0.00068911
Si		2.29451075		3.30749987		7.47995792		 0.00025438		0.00000000		 0.00007257
Si		5.80984857		1.10249996		1.40732173		-0.00025438		0.00000000		-0.00007257
Mg		1.11488103		1.10249996		0.61499877		-0.00082852		-0.00000000		 0.00000268
Mg		6.98947904		3.30749987		8.27228088		 0.00082852		-0.00000000		-0.00000268
Mg		3.02197006		3.30749987		4.88703167		 0.00047130		0.00000000		 0.00048940
Mg		5.08239001		1.10249996		4.00024798		-0.00047130		0.00000000		-0.00048940
