# total energy = -11145.0178263 eV

CRYSTAL
PRIMVEC
		7.44100123		0.00000000		0.89291835
		0.00000000		4.41000265		0.00000000
		0.99503682		0.00000000		8.29200349
PRIMECORD
   12 1
Ca		0.82276492		1.10250029		5.66157223		 0.00060294		0.00000000		-0.00012719
Ca		7.61327388		3.30750012		3.52334811		-0.00060294		0.00000000		 0.00012719
Ca		3.75480166		3.30750012		1.92711932		 0.00009134		0.00000000		 0.00012254
Ca		4.68123789		1.10250029		7.25780102		-0.00009134		0.00000000		-0.00012254
Si		2.39714833		1.10250029		3.43901006		-0.00024382		-0.00000000		 0.00036502
Si		6.03889197		3.30750012		5.74591028		 0.00024382		-0.00000000		-0.00036502
Si		2.58824687		3.30750012		7.54823986		 0.00053766		0.00000000		 0.00033990
Si		5.84779267		1.10250029		1.63667973		-0.00053766		0.00000000		-0.00033990
Mg		1.13604890		1.10250029		0.65790122		 0.00028898		0.00000000		 0.00002383
Mg		7.29999065		3.30750012		8.52701912		-0.00028898		0.00000000		-0.00002383
Mg		3.20897820		3.30750012		4.99295029		 0.00003167		0.00000000		 0.00000917
Mg		5.22706210		1.10250029		4.19197005		-0.00003167		0.00000000		-0.00000917
