# total energy = -11144.1652054 eV

CRYSTAL
PRIMVEC
		7.44100247		0.00000000		-1.19056371
		0.00000000		4.41000123		0.00000000
		-1.32671770		0.00000000		8.29200259
PRIMECORD
   12 1
Ca		-0.75758679		1.10249993		5.62083959		-0.00030815		0.00000000		-0.00059418
Ca		6.87186704		3.30749979		1.48060005		 0.00030815		0.00000000		 0.00059418
Ca		3.33532968		3.30749979		0.92611088		 0.00088210		0.00000000		-0.00026063
Ca		2.77894982		1.10249993		6.17532875		-0.00088210		0.00000000		 0.00026063
Si		1.50187693		1.10249993		2.87524102		-0.00028891		0.00000000		-0.00031526
Si		4.61240256		3.30749979		4.22619862		 0.00028891		0.00000000		 0.00031526
Si		0.53209700		3.30749979		7.07026770		 0.00042252		0.00000000		-0.00004024
Si		5.58218250		1.10249993		0.03117119		-0.00042252		0.00000000		 0.00004024
Mg		0.98787527		1.10249993		0.35758810		 0.00028506		0.00000000		-0.00012262
Mg		5.12640573		3.30749979		6.74385154		-0.00028506		0.00000000		 0.00012262
Mg		1.89992314		3.30749979		4.25152290		-0.00061302		0.00000000		 0.00074979
Mg		4.21435711		1.10249993		2.84991674		 0.00061302		0.00000000		-0.00074979
