# total energy = -20635.236501 eV

CRYSTAL
PRIMVEC
		10.05000003		0.00000000		0.00000000
		0.00000000		5.46249662		0.00000000
		0.00000000		0.00000000		4.86999886
PRIMECORD
   28 1
Si		3.34665001		0.00000000		4.37666949		 0.00055784		0.00000000		-0.00006744
Si		6.70335002		0.00000000		0.49333139		-0.00055784		0.00000000		 0.00006744
Si		8.37165002		2.73125032		4.37666949		 0.00058900		0.00000000		-0.00006832
Si		1.67835000		2.73125032		0.49333139		-0.00058900		0.00000000		 0.00006832
Mg		0.00000000		0.00000000		0.00000000		0.00000000		0.00000000		0.00000000
Mg		5.02500001		2.73125032		0.00000000		0.00000000		0.00000000		0.00000000
Mg		5.02500001		0.00000000		2.43500044		0.00000000		0.00000000		0.00000000
Mg		0.00000000		2.73125032		2.43500044		0.00000000		0.00000000		0.00000000
Mg		2.51250001		1.36562516		2.43500044		-0.00001038		 0.00000046		 0.00000500
Mg		7.53750002		4.09687548		2.43500044		 0.00001038		-0.00000046		-0.00000500
Mg		7.53750002		1.36562516		2.43500044		 0.00001038		 0.00000046		-0.00000500
Mg		2.51250001		4.09687548		2.43500044		-0.00001038		-0.00000046		 0.00000500
O		8.23497002		0.00000000		1.08113981		-0.00069515		0.00000000		-0.00000610
O		1.81503001		0.00000000		3.78886006		 0.00069515		0.00000000		 0.00000610
O		3.20997001		2.73125032		1.08113981		-0.00071854		0.00000000		 0.00000186
O		6.84003002		2.73125032		3.78886006		 0.00071854		0.00000000		-0.00000186
O		3.35770501		0.00000000		1.14591105		-0.00053244		0.00000000		 0.00004391
O		6.69229502		0.00000000		3.72408882		 0.00053244		0.00000000		-0.00004391
O		8.38270502		2.73125032		1.14591105		-0.00051364		0.00000000		 0.00002605
O		1.66729500		2.73125032		3.72408882		 0.00051364		0.00000000		-0.00002605
O		0.91254000		1.47651384		1.09721076		-0.00055083		 0.00052710		 0.00025868
O		9.13746003		3.98598579		3.77278911		 0.00055083		-0.00052710		-0.00025868
O		9.13746003		1.47651384		3.77278911		 0.00055083		 0.00052710		-0.00025868
O		0.91254000		3.98598579		1.09721076		-0.00055083		-0.00052710		 0.00025868
O		5.93754002		4.20776416		1.09721076		-0.00053119		 0.00052962		 0.00024497
O		4.11246001		1.25473647		3.77278911		 0.00053119		-0.00052962		-0.00024497
O		4.11246001		4.20776416		3.77278911		 0.00053119		 0.00052962		-0.00024497
O		5.93754002		1.25473647		1.09721076		-0.00053119		-0.00052962		 0.00024497
