# total energy = -20636.6947638 eV

CRYSTAL
PRIMVEC
		10.05000003		0.00000000		0.00000000
		0.00000000		6.32499767		0.00000000
		0.00000000		0.00000000		4.86999886
PRIMECORD
   28 1
Si		3.34665001		0.00000000		4.37666949		-0.00052687		0.00000000		-0.00034144
Si		6.70335002		0.00000000		0.49333139		 0.00052687		0.00000000		 0.00034144
Si		8.37165002		3.16249984		4.37666949		-0.00051607		-0.00000000		-0.00034316
Si		1.67835000		3.16249984		0.49333139		 0.00051607		-0.00000000		 0.00034316
Mg		0.00000000		0.00000000		0.00000000		0.00000000		0.00000000		0.00000000
Mg		5.02500001		3.16249984		0.00000000		0.00000000		0.00000000		0.00000000
Mg		5.02500001		0.00000000		2.43500044		0.00000000		0.00000000		0.00000000
Mg		0.00000000		3.16249984		2.43500044		0.00000000		0.00000000		0.00000000
Mg		2.51250001		1.58124992		2.43500044		-0.00000695		 0.00000335		 0.00000461
Mg		7.53750002		4.74374976		2.43500044		 0.00000695		-0.00000335		-0.00000461
Mg		7.53750002		1.58124992		2.43500044		 0.00000695		 0.00000335		-0.00000461
Mg		2.51250001		4.74374976		2.43500044		-0.00000695		-0.00000335		 0.00000461
O		8.23497002		0.00000000		1.08113981		 0.00089616		0.00000000		 0.00009963
O		1.81503001		0.00000000		3.78886006		-0.00089616		0.00000000		-0.00009963
O		3.20997001		3.16249984		1.08113981		 0.00088454		-0.00000000		 0.00010608
O		6.84003002		3.16249984		3.78886006		-0.00088454		0.00000000		-0.00010608
O		3.35770501		0.00000000		1.14591105		 0.00072791		0.00000000		-0.00008971
O		6.69229502		0.00000000		3.72408882		-0.00072791		0.00000000		 0.00008971
O		8.38270502		3.16249984		1.14591105		 0.00073694		0.00000000		-0.00009353
O		1.66729500		3.16249984		3.72408882		-0.00073694		0.00000000		 0.00009353
O		0.91254000		1.70964772		1.09721076		-0.00028097		 0.00026603		-0.00015075
O		9.13746003		4.61535196		3.77278911		 0.00028097		-0.00026603		 0.00015075
O		9.13746003		1.70964772		3.77278911		 0.00028097		 0.00026603		 0.00015075
O		0.91254000		4.61535196		1.09721076		-0.00028097		-0.00026603		-0.00015075
O		5.93754002		4.87214755		1.09721076		-0.00026861		 0.00026346		-0.00015146
O		4.11246001		1.45285212		3.77278911		 0.00026861		-0.00026346		 0.00015146
O		4.11246001		4.87214755		3.77278911		 0.00026861		 0.00026346		 0.00015146
O		5.93754002		1.45285212		1.09721076		-0.00026861		-0.00026346		-0.00015146
