# total energy = -20632.3877921 eV

CRYSTAL
PRIMVEC
		10.05000003		0.00000000		0.00000000
		0.00000000		5.17499627		0.00000000
		0.00000000		0.00000000		4.86999886
PRIMECORD
   28 1
Si		3.34665001		0.00000000		4.37666949		 0.00011884		0.00000000		 0.00014270
Si		6.70335002		0.00000000		0.49333139		-0.00011884		0.00000000		-0.00014270
Si		8.37165002		2.58750014		4.37666949		 0.00009713		0.00000000		-0.00004219
Si		1.67835000		2.58750014		0.49333139		-0.00009713		0.00000000		 0.00004219
Mg		0.00000000		0.00000000		0.00000000		0.00000000		0.00000000		0.00000000
Mg		5.02500001		2.58750014		0.00000000		0.00000000		0.00000000		0.00000000
Mg		5.02500001		0.00000000		2.43500044		0.00000000		0.00000000		0.00000000
Mg		0.00000000		2.58750014		2.43500044		0.00000000		0.00000000		0.00000000
Mg		2.51250001		1.29374957		2.43500044		-0.00000986		 0.00000602		-0.00000801
Mg		7.53750002		3.88124971		2.43500044		 0.00000986		-0.00000602		 0.00000801
Mg		7.53750002		1.29374957		2.43500044		 0.00000986		 0.00000602		 0.00000801
Mg		2.51250001		3.88124971		2.43500044		-0.00000986		-0.00000602		-0.00000801
O		8.23497002		0.00000000		1.08113981		-0.00042321		-0.00000000		-0.00000610
O		1.81503001		0.00000000		3.78886006		 0.00042321		-0.00000000		 0.00000610
O		3.20997001		2.58750014		1.08113981		-0.00046583		-0.00000000		-0.00001185
O		6.84003002		2.58750014		3.78886006		 0.00046583		-0.00000000		 0.00001185
O		3.35770501		0.00000000		1.14591105		-0.00018001		0.00000000		-0.00028328
O		6.69229502		0.00000000		3.72408882		 0.00018001		0.00000000		 0.00028328
O		8.38270502		2.58750014		1.14591105		-0.00016701		0.00000000		-0.00018042
O		1.66729500		2.58750014		3.72408882		 0.00016701		0.00000000		 0.00018042
O		0.91254000		1.39880322		1.09721076		 0.00015426		-0.00035702		 0.00004232
O		9.13746003		3.77619706		3.77278911		-0.00015426		 0.00035702		-0.00004232
O		9.13746003		1.39880322		3.77278911		-0.00015426		-0.00035702		-0.00004232
O		0.91254000		3.77619706		1.09721076		 0.00015426		 0.00035702		 0.00004232
O		5.93754002		3.98630337		1.09721076		 0.00015251		-0.00037837		 0.00005078
O		4.11246001		1.18869692		3.77278911		-0.00015251		 0.00037837		-0.00005078
O		4.11246001		3.98630337		3.77278911		-0.00015251		-0.00037837		-0.00005078
O		5.93754002		1.18869692		1.09721076		 0.00015251		 0.00037837		 0.00005078
