# total energy = -24715.9482562 eV	

CRYSTAL	
PRIMVEC	
		9.03899958		0.00000000		0.00000000	
		0.00000000		8.69500237		0.00000000	
		0.00000000		0.00000000		5.59789764	
PRIMCOORD
   40 1	
O		1.09371895		0.75124753		0.32971559		-0.00000614		 0.00050540		-0.00001905	
O		1.09371895		7.94375033		3.12866621		-0.00000614		-0.00050540		-0.00001905	
O		5.61321874		5.09874781		2.46923413		-0.00000614		 0.00050540		 0.00001905	
O		5.61321874		3.59625185		5.26818386		-0.00000614		-0.00050540		 0.00001905	
O		3.40679894		2.13896988		0.59113792		-0.00004311		-0.00034501		-0.00043950	
O		3.40679894		6.55602978		3.39008764		-0.00004311		 0.00034501		-0.00043950	
O		7.92629783		6.48646926		2.20781180		-0.00004311		-0.00034501		 0.00043950	
O		7.92629783		2.20852950		5.00676153		-0.00004311		 0.00034501		 0.00043950	
O		3.23415405		8.35502481		1.54501993		 0.00005124		 0.00042371		 0.00011984	
O		3.23415405		0.33997395		4.34397055		 0.00005124		-0.00042371		 0.00011984	
O		7.75365384		4.00752453		1.25392979		 0.00005124		 0.00042371		-0.00011984	
O		7.75365384		4.68747423		4.05287951		 0.00005124		-0.00042371		-0.00011984	
O		7.93985633		7.90114591		4.89872288		-0.00013602		-0.00027266		-0.00003986	
O		7.93985633		0.79385375		2.09977226		-0.00013602		 0.00027266		-0.00003986	
O		3.42035744		3.55364563		3.49812809		-0.00013602		-0.00027266		 0.00003986	
O		3.42035744		5.14135313		0.69917837		-0.00013602		 0.00027266		 0.00003986	
O		5.61683344		6.61080793		5.36670714		-0.00035574		-0.00024100		 0.00049493	
O		5.61683344		2.08419173		2.56775652		-0.00035574		 0.00024100		 0.00049493	
O		1.09733455		2.26330765		3.03014293		-0.00035574		-0.00024100		-0.00049493	
O		1.09733455		6.43169111		0.23119320		-0.00035574		 0.00024100		-0.00049493	
O		5.84280843		8.27503057		3.14714012		-0.00012516		-0.00012596		-0.00021977	
O		5.84280843		0.41996909		0.34818859		-0.00012516		 0.00012596		-0.00021977	
O		1.32330863		3.92753119		5.24971085		-0.00012516		-0.00012596		 0.00021977	
O		1.32330863		4.76746847		2.45076113		-0.00012516		 0.00012596		 0.00021977	
Si		2.68187118		0.77124631		0.38289564		 0.00014540		-0.00036593		 0.00004164	
Si		2.68187118		7.92375245		3.18184717		 0.00014540		 0.00036593		 0.00004164	
Si		7.20137097		5.11874569		2.41605408		 0.00014540		-0.00036593		-0.00004164	
Si		7.20137097		3.57625307		5.21500381		 0.00014540		 0.00036593		-0.00004164	
Si		6.34447381		7.91592648		4.82538948		-0.00020842		-0.00011815		-0.00004916	
Si		6.34447381		0.77907228		2.02643976		-0.00020842		 0.00011815		-0.00004916	
Si		1.82497402		3.56842801		3.57145969		-0.00020842		-0.00011815		 0.00004916	
Si		1.82497402		5.12657166		0.77250996		-0.00020842		 0.00011815		 0.00004916	
Mg		9.01640118		0.83558862		4.00809670		 0.00008437		-0.00003315		 0.00023478	
Mg		9.01640118		7.85940923		1.20914697		 0.00008437		 0.00003315		 0.00023478	
Mg		4.49690139		5.18308891		4.38875337		 0.00008437		-0.00003315		-0.00023478	
Mg		4.49690139		3.51190985		1.58980365		 0.00008437		 0.00003315		-0.00023478	
Mg		0.05423400		2.28417598		1.20410773		 0.00059359		 0.00037283		 0.00073279	
Mg		0.05423400		6.41082368		4.00305745		 0.00059359		-0.00037283		 0.00073279	
Mg		4.57373379		6.63167536		1.59484199		 0.00059359		 0.00037283		-0.00073279	
Mg		4.57373379		2.06332430		4.39379171		 0.00059359		-0.00037283		-0.00073279	
