# total energy = -24714.7792059 eV	

CRYSTAL	
PRIMVEC	
		9.68099686		0.00000000		0.77447781	
		0.00000000		8.73899798		0.00000000	
		2.01002946		0.00000000		5.07429856	
PRIMCOORD
   40 1	
Si		2.43702512		3.58299005		1.18257502		-0.00003887		 0.00019630		 0.00014832	
Si		9.25399926		5.15600988		4.66620523		 0.00003887		-0.00019630		-0.00014832	
Si		3.40848707		7.95249001		1.74181511		 0.00003887		 0.00019630		-0.00014832	
Si		8.28253633		0.78650992		4.10696515		-0.00003887		-0.00019630		 0.00014832	
Si		8.24898647		3.58299005		2.12905498		-0.00029907		-0.00009050		-0.00002981	
Si		3.44203693		5.15600988		3.71972527		 0.00029907		 0.00009050		 0.00002981	
Si		7.27752452		7.95249001		1.56981489		 0.00029907		-0.00009050		 0.00002981	
Si		4.41349986		0.78650992		4.27896439		-0.00029907		 0.00009050		-0.00002981	
O		4.07340169		3.67037993		0.81722195		-0.00009280		-0.00014741		-0.00025279	
O		7.61762172		5.06862097		5.03155733		 0.00009280		 0.00014741		 0.00025279	
O		1.77210953		8.03987989		2.10716818		 0.00009280		-0.00014741		 0.00025279	
O		9.91891388		0.69912003		3.74161208		-0.00009280		 0.00014741		-0.00025279	
O		8.66461529		2.18474998		1.47441461		-0.00026300		-0.00055779		 0.00001543	
O		3.02640909		6.55424994		4.37436370		 0.00026300		 0.00055779		-0.00001543	
O		6.86189570		6.55424994		2.22445526		 0.00026300		-0.00055779		-0.00001543	
O		4.82912770		2.18474998		3.62432499		-0.00026300		 0.00055779		 0.00001543	
O		3.36167266		4.28211008		4.93675725		 0.00035844		 0.00045422		-0.00008941	
O		8.32935075		4.45688985		0.91202301		-0.00035844		-0.00045422		 0.00008941	
O		4.49386316		8.65161004		3.06193241		-0.00035844		 0.00045422		 0.00008941	
O		7.19716024		0.08738988		2.78684687		 0.00035844		-0.00045422		-0.00008941	
O		9.33436353		4.28211008		3.44917326		-0.00011847		-0.00046860		 0.00011438	
O		2.35666084		4.45688985		2.39960699		 0.00011847		 0.00046860		-0.00011438	
O		8.20217303		8.65161004		5.32399712		 0.00011847		-0.00046860		-0.00011438	
O		3.48885037		0.08738988		0.52478313		-0.00011847		 0.00046860		 0.00011438	
O		2.02139630		2.18474998		1.83721345		-0.00034487		-0.00008986		 0.00045325	
O		9.66962710		6.55424994		4.01156486		 0.00034487		 0.00008986		-0.00045325	
O		3.82411589		6.55424994		1.08717474		 0.00034487		-0.00008986		-0.00045325	
O		7.86690849		2.18474998		4.76160357		-0.00034487		 0.00008986		 0.00045325	
O		6.61260990		3.67037993		2.49440805		-0.00039781		-0.00030444		-0.00023508	
O		5.07841448		5.06862097		3.35437220		 0.00039781		 0.00030444		 0.00023508	
O		8.91390206		8.03987989		1.20446182		 0.00039781		-0.00030444		 0.00023508	
O		2.77712231		0.69912003		4.64431746		-0.00039781		 0.00030444		-0.00023508	
Mg		0.50250591		0.79524871		1.26857513		-0.00019027		 0.00016731		 0.00022491	
Mg		1.50751772		7.94375025		3.80572441		 0.00019027		-0.00016731		-0.00022491	
Mg		5.34300531		5.16474867		1.65581500		 0.00019027		 0.00016731		-0.00022491	
Mg		6.34801810		3.57425125		4.19296525		-0.00019027		-0.00016731		 0.00022491	
Mg		0.40200492		6.02990968		1.01485971		 0.00008930		 0.00016828		-0.00083261	
Mg		1.60801968		2.70909025		4.05943982		-0.00008930		-0.00016828		 0.00083261	
Mg		5.44350630		1.66040971		1.90952944		-0.00008930		 0.00016828		 0.00083261	
Mg		6.24751711		7.07858924		3.93924984		 0.00008930		-0.00016828		-0.00083261	
