# total energy = -12345.4021397 eV	

CRYSTAL	
PRIMVEC	
		2.64665013		0.00000000		0.00000000	
		0.00000000		8.05299941		0.00000000	
		0.00000000		0.00000000		6.10800005	
PRIMCOORD
   20 1	
O		0.00000000		0.58786890		1.52700014		0.00000000		-0.00017143		 0.00001013	
O		0.00000000		7.46513130		4.58100017		0.00000000		 0.00017143		-0.00001013	
O		1.32332507		4.61436913		1.52700014		0.00000000		-0.00017138		 0.00000997	
O		1.32332507		3.43863107		4.58100017		0.00000000		 0.00017138		-0.00000997	
O		0.00000000		2.92323910		2.69362817		0.00000000		-0.00001234		-0.00075441	
O		0.00000000		5.12976137		3.41437214		0.00000000		 0.00001234		 0.00075441	
O		0.00000000		5.12976137		5.74762820		0.00000000		 0.00001655		-0.00075508	
O		0.00000000		2.92323910		0.36037212		0.00000000		-0.00001655		 0.00075508	
O		1.32332507		6.94974039		2.69362817		0.00000000		-0.00001233		-0.00075433	
O		1.32332507		1.10326114		3.41437214		0.00000000		 0.00001233		 0.00075433	
O		1.32332507		1.10326114		5.74762820		-0.00000000		 0.00001665		-0.00075514	
O		1.32332507		6.94974039		0.36037212		0.00000000		-0.00001665		 0.00075514	
Si		0.00000000		0.00000000		0.00000000		0.00000000		0.00000000		0.00000000	
Si		0.00000000		0.00000000		3.05400002		0.00000000		0.00000000		0.00000000	
Si		1.32332507		4.02650023		0.00000000		0.00000000		0.00000000		0.00000000	
Si		1.32332507		4.02650023		3.05400002		0.00000000		0.00000000		0.00000000	
Mg		0.00000000		2.03740900		4.58100017		0.00000000		 0.00015051		-0.00000201	
Mg		0.00000000		6.01559120		1.52700014		0.00000000		-0.00015051		 0.00000201	
Mg		1.32332507		6.06391030		4.58100017		0.00000000		 0.00015066		-0.00000208	
Mg		1.32332507		1.98909123		1.52700014		0.00000000		-0.00015066		 0.00000208	
