# total energy = -22437.755432 eV

CRYSTAL
PRIMVEC
		9.05300002		0.00000000		0.00000000
		0.00000000		6.90930393		0.00000000
		-0.52464851		0.00000000		4.72194523
PRIMECORD
   40 1
Ca		6.64561268		0.46637797		0.42544664		-0.00023709		-0.00010238		-0.00032571
Ca		1.88274336		6.44292234		4.29649587		 0.00023709		 0.00010238		 0.00032571
Ca		2.14506490		3.92102813		1.93552507		 0.00023709		-0.00010238		 0.00032571
Ca		6.38329114		2.98827219		2.78641926		-0.00023709		 0.00010238		-0.00032571
Mg		1.97928999		1.13381583		1.90388845		-0.00011659		-0.00017975		-0.00034186
Mg		6.54906696		5.77548358		2.81805587		 0.00011659		 0.00017975		 0.00034186
Mg		6.81138940		4.58846599		0.45708416		 0.00011659		-0.00017975		 0.00034186
Mg		1.71696845		2.32083433		4.26485926		-0.00011659		 0.00017975		-0.00034186
Si		4.38151984		1.14694358		2.18484288		 0.00001454		 0.00008852		 0.00061153
Si		4.14683711		5.76235582		2.53709963		-0.00001454		-0.00008852		-0.00061153
Si		4.40915865		4.60159374		0.17612793		-0.00001454		 0.00008852		-0.00061153
Si		4.11919830		2.30770567		4.54581459		 0.00001454		-0.00008852		 0.00061153
Si		0.14788438		5.90261486		1.24375999		 0.00010706		 0.00027848		 0.00003301
Si		8.38047347		1.00668545		3.47818434		-0.00010706		-0.00027848		-0.00003301
Si		8.64279501		2.44796470		1.11721172		-0.00010706		 0.00027848		-0.00003301
Si		-0.11443807		4.46133471		3.60473079		 0.00010706		-0.00027848		 0.00003301
O		3.50493414		1.16974538		0.53310673		-0.00021977		-0.00041633		-0.00048851
O		5.02342190		5.73955494		4.18883578		 0.00021977		 0.00041633		 0.00048851
O		5.28574434		4.62439463		1.82786408		 0.00021977		-0.00041633		 0.00048851
O		3.24261170		2.28490478		2.89407934		-0.00021977		 0.00041633		-0.00048851
O		3.49747718		3.33788275		0.40467091		-0.00002635		 0.00020329		 0.00010294
O		5.03087976		3.57141666		4.31727341		 0.00002635		-0.00020329		-0.00010294
O		5.29320220		6.79253291		1.95630080		 0.00002635		 0.00020329		-0.00010294
O		3.23515474		0.11676740		2.76564172		-0.00002635		-0.00020329		 0.00010294
O		5.43097891		2.02580702		1.26217560		-0.00060354		-0.00043528		 0.00033323
O		3.09737713		4.88349330		3.45976782		 0.00060354		 0.00043528		-0.00033323
O		3.35969867		5.48045717		1.09879611		 0.00060354		-0.00043528		-0.00033323
O		5.16865737		1.42884314		3.62314731		-0.00060354		 0.00043528		 0.00033323
O		1.17630971		2.42931009		1.02371686		 0.00050321		 0.00000300		-0.00010606
O		7.35204724		4.47999022		3.69822565		-0.00050321		-0.00000300		 0.00010606
O		7.61436878		5.88396025		1.33725394		-0.00050321		 0.00000300		 0.00010606
O		0.91398817		1.02534007		3.38468857		 0.00050321		-0.00000300		-0.00010606
O		0.85195973		0.19967931		0.93636085		-0.00019448		-0.00020670		-0.00020086
O		7.67639631		6.70962101		3.78558167		 0.00019448		 0.00020670		 0.00020086
O		7.93871785		3.65432856		1.42460996		 0.00019448		-0.00020670		 0.00020086
O		0.58963819		3.25497085		3.29733346		-0.00019448		 0.00020670		-0.00020086
O		0.94307183		4.89869419		0.32817487		-0.00005148		 0.00032084		-0.00005137
O		7.58528420		2.01060612		4.39376764		 0.00005148		-0.00032084		 0.00005137
O		7.84760574		1.44404403		2.03279684		 0.00005148		 0.00032084		 0.00005137
O		0.68075029		5.46525628		2.68914658		-0.00005148		-0.00032084		-0.00005137
