# total energy = -22442.6501407 eV

CRYSTAL
PRIMVEC
		9.05300002		0.00000000		0.00000000
		0.00000000		7.10122754		0.00000000
		-0.52464851		0.00000000		4.72194523
PRIMECORD
   40 1
Ca		6.64561268		0.47933281		0.42544664		-0.00037969		 0.00011942		-0.00060259
Ca		1.88274336		6.62189201		4.29649587		 0.00037969		-0.00011942		 0.00060259
Ca		2.14506490		4.02994477		1.93552507		 0.00037969		 0.00011942		 0.00060259
Ca		6.38329114		3.07128005		2.78641926		-0.00037969		-0.00011942		-0.00060259
Mg		1.97928999		1.16531122		1.90388845		-0.00003700		-0.00045475		 0.00020402
Mg		6.54906696		5.93591360		2.81805587		 0.00003700		 0.00045475		-0.00020402
Mg		6.81138940		4.71592317		0.45708416		 0.00003700		-0.00045475		-0.00020402
Mg		1.71696845		2.38530165		4.26485926		-0.00003700		 0.00045475		 0.00020402
Si		4.38151984		1.17880290		2.18484288		-0.00040744		 0.00021989		 0.00089470
Si		4.14683711		5.92242192		2.53709963		 0.00040744		-0.00021989		-0.00089470
Si		4.40915865		4.72941576		0.17612793		 0.00040744		 0.00021989		-0.00089470
Si		4.11919830		2.37180906		4.54581459		-0.00040744		-0.00021989		 0.00089470
Si		0.14788438		6.06657736		1.24375999		-0.00013320		-0.00024328		 0.00023907
Si		8.38047347		1.03464836		3.47818434		 0.00013320		 0.00024328		-0.00023907
Si		8.64279501		2.51596360		1.11721172		 0.00013320		-0.00024328		-0.00023907
Si		-0.11443807		4.58526122		3.60473079		-0.00013320		 0.00024328		 0.00023907
O		3.50493414		1.20223659		0.53310673		-0.00030351		-0.00060099		-0.00038054
O		5.02342190		5.89898823		4.18883578		 0.00030351		 0.00060099		 0.00038054
O		5.28574434		4.75285036		1.82786408		 0.00030351		-0.00060099		 0.00038054
O		3.24261170		2.34837536		2.89407934		-0.00030351		 0.00060099		-0.00038054
O		3.49747718		3.43060177		0.40467091		 0.00033134		 0.00039522		 0.00048036
O		5.03087976		3.67062305		4.31727341		-0.00033134		-0.00039522		-0.00048036
O		5.29320220		6.98121372		1.95630080		-0.00033134		 0.00039522		-0.00048036
O		3.23515474		0.12001109		2.76564172		 0.00033134		-0.00039522		 0.00048036
O		5.43097891		2.08207865		1.26217560		-0.00072879		-0.00028146		 0.00028566
O		3.09737713		5.01914617		3.45976782		 0.00072879		 0.00028146		-0.00028566
O		3.35969867		5.63269242		1.09879611		 0.00072879		-0.00028146		-0.00028566
O		5.16865737		1.46853330		3.62314731		-0.00072879		 0.00028146		 0.00028566
O		1.17630971		2.49679115		1.02371686		 0.00073896		 0.00028170		-0.00008785
O		7.35204724		4.60443367		3.69822565		-0.00073896		-0.00028170		 0.00008785
O		7.61436878		6.04740311		1.33725394		-0.00073896		 0.00028170		 0.00008785
O		0.91398817		1.05382171		3.38468857		 0.00073896		-0.00028170		-0.00008785
O		0.85195973		0.20522517		0.93636085		 0.00018619		-0.00005190		-0.00005996
O		7.67639631		6.89599874		3.78558167		-0.00018619		 0.00005190		 0.00005996
O		7.93871785		3.75583804		1.42460996		-0.00018619		-0.00005190		 0.00005996
O		0.58963819		3.34538678		3.29733346		 0.00018619		 0.00005190		-0.00005996
O		0.94307183		5.03476802		0.32817487		-0.00003550		 0.00030114		-0.00018955
O		7.58528420		2.06645680		4.39376764		 0.00003550		-0.00030114		 0.00018955
O		7.84760574		1.48415607		2.03279684		 0.00003550		 0.00030114		 0.00018955
O		0.68075029		5.61706875		2.68914658		-0.00003550		-0.00030114		-0.00018955
