# total energy = -10317.1489207 eV

CRYSTAL
PRIMVEC
		4.97999984		0.00000000		0.00000000
		0.00000000		9.29250043		0.00000000
		0.00000000		0.00000000		2.75000073
PRIMECORD
   14 1
Si		0.00000000		0.00000000		0.00000000		0.00000000		0.00000000		0.00000000
Si		2.48999992		4.64624972		0.00000000		0.00000000		0.00000000		0.00000000
Mg		0.40786199		3.09347282		1.37499987		 0.00008239		 0.00012535		-0.00000000
Mg		4.57213786		6.19902662		1.37499987		-0.00008239		-0.00012535		-0.00000000
Mg		2.08213793		7.73972253		1.37499987		-0.00008239		 0.00012535		0.00000000
Mg		2.89786191		1.55277690		1.37499987		 0.00008239		-0.00012535		0.00000000
O		1.07767197		0.41630408		1.37499987		-0.00003285		-0.00046489		-0.00000000
O		3.90232788		8.87619684		1.37499987		 0.00003285		 0.00046489		-0.00000000
O		1.41232796		5.06255380		1.37499987		 0.00003285		-0.00046489		-0.00000000
O		3.56767189		4.22994563		1.37499987		-0.00003285		 0.00046489		-0.00000000
O		1.95464994		2.86859495		0.00000000		-0.00045887		 0.00026115		-0.00000000
O		3.02534991		6.42390598		0.00000000		 0.00045887		-0.00026115		-0.00000000
O		0.53534998		7.51484466		0.00000000		 0.00045887		 0.00026115		0.00000000
O		4.44464986		1.77765477		0.00000000		-0.00045887		-0.00026115		0.00000000
