# total energy = -10315.5709433 eV

CRYSTAL
PRIMVEC
		4.97999984		0.00000000		0.00000000
		0.00000000		7.96500179		0.00000000
		0.00000000		0.00000000		2.75000073
PRIMECORD
   14 1
Si		0.00000000		0.00000000		0.00000000		0.00000000		0.00000000		0.00000000
Si		2.48999992		3.98249990		0.00000000		0.00000000		0.00000000		0.00000000
Mg		0.40786199		2.65154913		1.37499987		-0.00069779		-0.00028819		0.00000000
Mg		4.57213786		5.31345167		1.37499987		 0.00069779		 0.00028819		-0.00000000
Mg		2.08213793		6.63404902		1.37499987		 0.00069779		-0.00028819		0.00000000
Mg		2.89786191		1.33095177		1.37499987		-0.00069779		 0.00028819		0.00000000
O		1.07767197		0.35683193		1.37499987		-0.00035534		-0.00076145		0.00000000
O		3.90232788		7.60816787		1.37499987		 0.00035534		 0.00076145		-0.00000000
O		1.41232796		4.33933183		1.37499987		 0.00035534		-0.00076145		0.00000000
O		3.56767189		3.62566797		1.37499987		-0.00035534		 0.00076145		0.00000000
O		1.95464994		2.45879574		0.00000000		 0.00006087		 0.00016272		0.00000000
O		3.02534991		5.50620505		0.00000000		-0.00006087		-0.00016272		0.00000000
O		0.53534998		6.44129564		0.00000000		-0.00006087		 0.00016272		0.00000000
O		4.44464986		1.52370515		0.00000000		 0.00006087		-0.00016272		0.00000000
