# total energy = -117602.96198 eV	

CRYSTAL	
PRIMVEC	
		10.59468070		0.00016941		0.00498695	
		0.00022235		14.10696372		-0.00007412	
		-2.45087840		-0.00009529		9.77590010	
PRIMCOORD
   156 1	
Si		8.18936246		0.01275960		0.72720605		-0.00014997		-0.00003517		 0.00006797	
Si		-0.04533781		14.09427823		9.05360582		 0.00014996		 0.00003517		-0.00006797	
Si		1.17993198		7.06621393		4.16588553		 0.00015900		-0.00004510		-0.00007268	
Si		6.96409373		7.04082390		5.61492634		-0.00015899		 0.00004511		 0.00007267	
Si		3.62111495		2.67687078		6.58338950		-0.00007217		 0.00010788		 0.00002514	
Si		4.52291076		11.43016705		3.19742237		 0.00007218		-0.00010788		-0.00002514	
Si		3.29764732		9.73020970		8.08529195		 0.00006804		 0.00009745		-0.00002521	
Si		4.84637839		4.37682707		1.69551992		-0.00006804		-0.00009746		 0.00002522	
Si		1.21541872		1.76562094		4.17382547		-0.00003830		-0.00002292		 0.00002213	
Si		6.92860593		12.34141689		5.60698640		 0.00003830		 0.00002293		-0.00002213	
Si		8.15397101		8.81903504		0.71911470		 0.00004460		-0.00002130		-0.00002558	
Si		-0.00994637		5.28800279		9.06169717		-0.00004460		 0.00002130		 0.00002558	
Si		6.87659344		1.74721053		5.60434258		-0.00020979		 0.00003786		-0.00016119	
Si		1.26743227		12.35982730		4.17646929		 0.00020980		-0.00003786		 0.00016119	
Si		0.04182578		8.80057910		9.06449981		 0.00020659		 0.00002821		 0.00015322	
Si		8.10219993		5.30645768		0.71631206		-0.00020660		-0.00002822		-0.00015322	
Mg		4.07190009		0.00003706		4.89044564		0.00000000		0.00000000		-0.00000001	
Mg		5.29745152		7.05356550		0.00245642		-0.00000000		-0.00000001		-0.00000000	
Mg		4.40405941		2.45547677		3.47189191		-0.00029996		-0.00020703		 0.00018570	
Mg		3.73996524		11.65156106		6.30891996		 0.00029997		 0.00020704		-0.00018572	
Mg		4.96513339		9.50896921		1.42051356		 0.00030258		-0.00021944		-0.00019148	
Mg		3.17889232		4.59806862		8.36029831		-0.00030259		 0.00021944		 0.00019148	
Mg		5.29734035		0.00008470		0.00249559		0.00000000		 0.00000001		0.00000000	
Mg		4.07201232		7.05351892		4.89040541		-0.00000001		-0.00000000		 0.00000001	
Mg		6.19532343		0.03710776		2.86229101		 0.00019809		-0.00010085		 0.00024009	
Mg		1.94870122		14.06992901		6.91852086		-0.00019810		 0.00010085		-0.00024009	
Mg		3.17404301		7.09037468		2.03074446		-0.00020170		-0.00009588		-0.00024809	
Mg		4.96998269		7.01666315		7.75006636		 0.00020169		 0.00009588		 0.00024809	
Mg		0.42063370		0.00259618		1.48471178		 0.00005516		-0.00022666		 0.00011982	
Mg		7.72339201		14.10444165		8.29610009		-0.00005517		 0.00022665		-0.00011981	
Mg		8.94891591		7.05595521		3.40783875		-0.00004704		-0.00022633		-0.00009262	
Mg		-0.80489126		7.05108156		6.37297312		 0.00004703		 0.00022633		 0.00009263	
Mg		-0.86469017		0.00469048		6.20946582		 0.00005580		 0.00012850		 0.00022006	
Mg		9.00871588		14.10234629		3.57134605		-0.00005580		-0.00012849		-0.00022006	
Mg		7.78336138		7.05815328		8.45893505		-0.00003521		 0.00012620		-0.00022671	
Mg		0.36066433		7.04888455		1.32187682		 0.00003522		-0.00012620		 0.00022669	
Mg		3.19631699		0.03812739		2.10527974		 0.00012594		-0.00003219		-0.00001038	
Mg		4.94770766		14.06890939		7.67553213		-0.00012593		 0.00003220		 0.00001039	
Mg		6.17278475		7.09182947		2.78798549		-0.00011973		-0.00003203		 0.00002437	
Mg		1.97124096		7.01520836		6.99282638		 0.00011974		 0.00003203		-0.00002436	
Mg		6.57288938		2.39028222		1.21003154		 0.00023443		-0.00001148		 0.00000001	
Mg		1.57113527		11.71675561		8.57078033		-0.00023444		 0.00001148		-0.00000001	
Mg		2.79661576		9.44368467		3.68257723		-0.00024054		-0.00000373		-0.00000255	
Mg		5.34740994		4.66335316		6.09823464		 0.00024054		 0.00000374		 0.00000255	
Mg		-1.63885612		2.44741083		9.48433835		-0.00024327		 0.00035456		-0.00007153	
Mg		9.78288182		11.65962700		0.29647352		 0.00024328		-0.00035457		 0.00007155	
Mg		8.55770838		9.50065763		5.18199786		 0.00023342		 0.00036125		 0.00009608	
Mg		-0.41368268		4.60637914		4.59881401		-0.00023343		-0.00036126		-0.00009607	
Mg		0.46262147		2.49326852		7.35478668		 0.00012247		 0.00002537		-0.00000305	
Mg		7.68140318		11.61376826		2.42602519		-0.00012248		-0.00002538		 0.00000304	
Mg		6.45713925		9.54638615		7.31366924		-0.00012723		 0.00003425		-0.00002685	
Mg		1.68688540		4.56065063		2.46714263		 0.00012724		-0.00003425		 0.00002686	
Mg		6.01768961		2.48146819		8.75750394		 0.00002318		 0.00020452		-0.00023961	
Mg		2.12633609		11.62556964		1.02330793		-0.00002318		-0.00020452		 0.00023961	
Mg		0.90050937		9.53486746		5.91228290		-0.00001809		 0.00019065		 0.00022709	
Mg		7.24351633		4.57217037		3.86852791		 0.00001808		-0.00019065		-0.00022709	
Mg		3.60922992		2.37455798		0.44035279		-0.00021845		-0.00010632		 0.00011952	
Mg		4.53479473		11.73247985		9.34045908		 0.00021846		 0.00010632		-0.00011951	
Mg		5.75938160		9.42778361		4.45356042		 0.00020874		-0.00009776		-0.00010958	
Mg		2.38464411		4.67925316		5.32725145		-0.00020875		 0.00009776		 0.00010958	
Mg		9.40940284		2.50520119		1.94598222		 0.00015425		 0.00021724		 0.00022058	
Mg		-1.26537713		11.60183558		7.83482965		-0.00015425		-0.00021725		-0.00022059	
Mg		-0.03887066		9.55861846		2.94762076		-0.00016899		 0.00021437		-0.00021249	
Mg		8.18289531		4.54841831		6.83319111		 0.00016900		-0.00021436		 0.00021247	
O		3.63740352		1.05917266		6.55533447		-0.00012538		 0.00020953		 0.00002478	
O		4.50662218		13.04786411		3.22547740		 0.00012538		-0.00020954		-0.00002478	
O		3.28104322		8.11252217		8.11344121		 0.00012418		 0.00020924		-0.00003629	
O		4.86298249		5.99451566		1.66737066		-0.00012417		-0.00020923		 0.00003629	
O		5.73516261		1.22423217		4.50224404		-0.00024720		-0.00014109		 0.00002559	
O		2.40886310		12.88280566		5.27856783		 0.00024720		 0.00014108		-0.00002559	
O		3.63411701		8.27782626		0.39078507		 0.00024841		-0.00015193		-0.00003618	
O		4.50990870		5.82921157		9.39002680		-0.00024842		 0.00015193		 0.00003620	
O		6.88876858		3.40494823		5.59851177		-0.00006513		 0.00003777		 0.00009318	
O		1.25525607		10.70208960		4.18230010		 0.00006513		-0.00003777		-0.00009318	
O		0.02969616		10.45829879		9.06987110		 0.00007776		 0.00003412		-0.00009413	
O		8.11432954		3.64873798		0.71094077		-0.00007777		-0.00003411		 0.00009413	
O		6.52088324		1.21293371		7.13652883		-0.00009675		 0.00031127		-0.00017131	
O		1.62314141		12.89410412		2.64428304		 0.00009675		-0.00031126		 0.00017131	
O		0.39766092		8.26620381		7.53238873		 0.00008567		 0.00030588		 0.00016023	
O		7.74636479		5.84083402		2.24842314		-0.00008567		-0.00030588		-0.00016025	
O		1.23729247		3.42516390		4.15177490		-0.00002415		-0.00005184		 0.00009868	
O		6.90673218		10.68187394		5.62903697		 0.00002415		 0.00005184		-0.00009868	
O		8.13184951		10.47855258		0.74140138		 0.00003958		-0.00004282		-0.00010596	
O		0.01217514		3.62848525		9.03941049		-0.00003958		 0.00004284		 0.00010595	
O		2.74496327		1.22672564		3.75295142		-0.00009193		 0.00007910		 0.00003634	
O		5.39906244		12.88031219		6.02786045		 0.00009193		-0.00007910		-0.00003635	
O		6.62437988		8.28009421		1.13991675		 0.00009761		 0.00008166		-0.00003281	
O		1.51964477		5.82694362		8.64089512		-0.00009760		-0.00008166		 0.00003280	
O		0.80392564		1.21371299		5.69268885		-0.00011598		 0.00009135		-0.00013295	
O		7.34009901		12.89332378		4.08812302		 0.00011597		-0.00009136		 0.00013294	
O		6.11467675		8.26710379		8.97611013		 0.00011681		 0.00008499		 0.00013105	
O		2.02934790		5.83993404		0.80470174		-0.00011681		-0.00008500		-0.00013105	
O		0.07047161		1.23422512		3.09380397		-0.00006342		-0.00007233		 0.00012622	
O		8.07355304		12.87281165		6.68700790		 0.00006342		 0.00007232		-0.00012621	
O		9.29906636		8.28790286		1.79917643		 0.00005072		-0.00007657		-0.00011081	
O		-1.15504065		5.81913391		7.98163544		-0.00005073		 0.00007656		 0.00011081	
O		3.99460981		3.41427308		5.15863438		-0.00014566		-0.00032465		-0.00003618	
O		4.14941590		10.69276475		4.62217749		 0.00014565		 0.00032465		 0.00003617	
O		2.92436951		10.46776023		9.51001107		 0.00013316		-0.00032438		 0.00002939	
O		5.21965514		3.63927760		0.27080080		-0.00013317		 0.00032437		-0.00002939	
O		4.66948467		3.37916645		7.62811589		 0.00005601		 0.00013209		-0.00010436	
O		3.47454103		10.72787138		2.15269598		-0.00005601		-0.00013209		 0.00010437	
O		2.24916536		10.43265995		7.04080273		-0.00005645		 0.00012661		 0.00009700	
O		5.89486035		3.67437788		2.74000914		 0.00005646		-0.00012660		-0.00009699	
O		4.87777498		1.19522423		1.68214304		-0.00000479		 0.00014204		 0.00014937	
O		3.26624967		12.91181361		8.09866883		 0.00000479		-0.00014205		-0.00014937	
O		4.49131511		8.24856844		3.21101419		 0.00001584		 0.00014502		-0.00014717	
O		3.65271060		5.85846833		6.56979768		-0.00001585		-0.00014502		 0.00014718	
O		4.67595712		1.05235293		9.47062795		-0.00003424		 0.00003265		 0.00025814	
O		3.46806859		13.05468490		0.31018392		 0.00003425		-0.00003265		-0.00025814	
O		2.24233081		8.10589197		5.19828326		 0.00003917		 0.00003003		-0.00026673	
O		5.90169490		6.00114586		4.58252861		-0.00003916		-0.00003003		 0.00026672	
O		7.86200586		1.06686696		2.15727423		-0.00012833		-0.00007390		 0.00001767	
O		0.28201878		13.04017087		7.62353764		 0.00012833		 0.00007391		-0.00001768	
O		1.50735951		8.12017730		2.73577394		 0.00012821		-0.00007579		-0.00001428	
O		6.63666513		5.98686053		7.04503793		-0.00012820		 0.00007579		 0.00001428	
O		-1.10569210		1.02510895		8.03236254		 0.00024870		 0.00012862		-0.00012002	
O		9.24971675		13.08192888		1.74844933		-0.00024870		-0.00012863		 0.00012000	
O		8.02413037		8.07887457		6.63611667		-0.00024928		 0.00013272		 0.00011075	
O		0.11989427		6.02816326		3.14469520		 0.00024929		-0.00013273		-0.00011075	
O		9.66329672		1.12708515		0.27435837		-0.00023171		-0.00023208		 0.00010806	
O		-1.51927101		12.97995268		9.50645351		 0.00023170		 0.00023207		-0.00010807	
O		-0.29412404		8.18040819		4.61852146		 0.00023768		-0.00022565		-0.00010479	
O		8.43814975		5.92662964		5.16229041		-0.00023770		 0.00022566		 0.00010479	
O		1.38179854		1.04096025		8.63891516		-0.00011657		 0.00014746		-0.00000774	
O		6.76222610		13.06607653		1.14189671		 0.00011657		-0.00014745		 0.00000775	
O		5.53672549		8.09437011		6.02984040		 0.00010667		 0.00015441		 0.00001231	
O		2.60729915		6.01266773		3.75097147		-0.00010667		-0.00015440		-0.00001233	
O		2.03255924		1.03936675		0.71171157		 0.00025234		-0.00007196		-0.00020077	
O		6.11146647		13.06767108		9.06910030		-0.00025232		 0.00007195		 0.00020078	
O		7.33675638		8.09277238		4.18094061		-0.00025075		-0.00006024		 0.00021814	
O		0.80726933		6.01426440		5.59987021		 0.00025074		 0.00006024		-0.00021814	
O		2.20081102		3.38514655		6.99050655		-0.00006248		 0.00016735		-0.00001673	
O		5.94321468		10.72189128		2.79030532		 0.00006249		-0.00016735		 0.00001674	
O		4.71813124		10.43801536		7.67786043		 0.00006210		 0.00017758		 0.00002797	
O		3.42589447		3.66902247		2.10295144		-0.00006208		-0.00017758		-0.00002797	
O		8.39030999		1.22847690		5.15972600		-0.00019440		 0.00007337		 0.00025558	
O		-0.24628428		12.87856093		4.62108587		 0.00019440		-0.00007337		-0.00025558	
O		-1.47186219		8.28180311		9.50903909		 0.00019568		 0.00006866		-0.00024984	
O		9.61588683		5.82523472		0.27177278		-0.00019565		-0.00006866		 0.00024984	
O		-0.85411699		3.47469879		6.22320269		-0.00002521		 0.00030900		 0.00022810	
O		8.99814270		10.63233904		3.55760918		 0.00002523		-0.00030893		-0.00022808	
O		7.77216563		10.52870370		8.44653227		 0.00003699		 0.00030599		-0.00025636	
O		0.37186008		3.57833413		1.33427960		-0.00003705		-0.00030586		 0.00025628	
O		8.87134187		3.48149523		3.57331754		-0.00009537		-0.00037209		-0.00007926	
O		-0.72731617		10.62554260		6.20749433		 0.00009538		 0.00037212		 0.00007925	
O		0.49888431		10.53454510		1.31999427		 0.00008597		-0.00037213		 0.00009325	
O		7.64514140		3.57249273		8.46081760		-0.00008600		 0.00037219		-0.00009321	
H		-1.27577667		2.67702643		5.83790220		-0.00028290		 0.00007652		 0.00055110	
H		9.41980237		11.43001140		3.94290967		 0.00028288		-0.00007658		-0.00055112	
H		8.19413341		9.73105251		8.83150770		 0.00028814		 0.00006773		-0.00053483	
H		-0.05010771		4.37598532		0.94930417		-0.00028807		-0.00006783		 0.00053489	
H		8.72226813		2.68884581		4.13400824		-0.00001664		 0.00029071		-0.00019086	
H		-0.57824243		11.41819202		5.64680363		 0.00001663		-0.00029073		 0.00019088	
H		0.64740748		9.74193909		0.75910558		 0.00002794		 0.00028296		 0.00019340	
H		7.49661717		4.36509874		9.02170523		-0.00002793		-0.00028301		-0.00019343	
