# total energy = -24708.4653351 eV

CRYSTAL
PRIMVEC
		9.61327310		-1.53811824		0.00000000
		-1.41159514		8.82245504		0.00000000
		-1.62743210		0.26038680		4.91197024
PRIMECORD
   40 1
Mg		1.11544970		5.43855012		1.07424791		-0.00030204		-0.00030613		-0.00028466
Mg		5.45879810		2.10617542		3.83772136		 0.00030204		 0.00030613		 0.00028466
Mg		6.54523199		0.27148240		1.38173721		 0.00085185		-0.00073153		-0.00047688
Mg		0.02901678		7.27324218		3.53023303		-0.00085185		 0.00073153		 0.00047688
Mg		2.09848629		-0.23173899		1.06000287		 0.00000736		 0.00048997		 0.00015586
Mg		4.47576151		7.77646357		3.85196640		-0.00000736		-0.00048997		-0.00015586
Mg		5.96111312		3.44854308		1.39598226		 0.00047262		-0.00047178		 0.00037453
Mg		0.61313566		4.09618150		3.51598799		-0.00047262		 0.00047178		-0.00037453
Si		-0.52005512		3.00261632		1.46327627		 0.00006274		 0.00008702		 0.00018563
Si		7.09430292		4.54211020		3.44869398		-0.00006274		-0.00008702		-0.00018563
Si		7.65505941		5.99289966		0.99270886		-0.00001056		 0.00024360		 0.00003780
Si		-1.08081064		1.55182491		3.91926042		 0.00001056		-0.00024360		-0.00003780
Si		3.76359884		6.59919999		1.11108818		-0.00051086		 0.00019213		-0.00020897
Si		2.81064896		0.94552458		3.80088207		 0.00051086		-0.00019213		 0.00020897
Si		3.37676877		2.36279068		1.34489695		 0.00005635		 0.00076737		-0.00041665
Si		3.19747903		5.18193487		3.56707135		-0.00005635		-0.00076737		 0.00041665
O		7.56788640		1.71972115		0.92295857		 0.00032201		-0.00044995		 0.00010062
O		-0.99363763		5.82500440		3.98901070		-0.00032201		 0.00044995		-0.00010062
O		-0.43655240		7.29873372		1.53302558		 0.00014032		-0.00001206		-0.00008078
O		7.01080020		0.24599183		3.37894369		-0.00014032		 0.00001206		 0.00008078
O		-0.02610196		4.30763649		1.57575974		 0.00004732		-0.00075487		-0.00025794
O		6.60035074		3.23708906		3.33620953		-0.00004732		 0.00075487		 0.00025794
O		8.11816745		-1.29374933		0.88022538		 0.00051297		 0.00022286		-0.00034651
O		-1.54391868		8.83847390		4.03174487		-0.00051297		-0.00022286		 0.00034651
O		-0.38934379		2.47794072		3.00710830		 0.00029848		-0.00092019		-0.00048454
O		6.96359159		5.06678386		1.90486194		-0.00029848		 0.00092019		 0.00048454
O		6.06235983		5.74397062		4.36084707		 0.00043449		 0.00009040		 0.00009008
O		0.51188894		1.80075395		0.55112318		-0.00043449		-0.00009040		-0.00009008
O		2.21084515		6.84935961		0.62922267		-0.00056252		-0.00039787		-0.00014610
O		4.36340362		0.69536497		4.28274660		 0.00056252		 0.00039787		 0.00014610
O		4.92895974		2.11615922		1.82676148		 0.00048936		 0.00003697		-0.00065858
O		1.64528904		5.42856535		3.08520779		-0.00048936		-0.00003697		 0.00065858
O		4.09764085		7.73810261		1.95791091		-0.00020727		-0.00036104		 0.00020022
O		2.47660695		-0.19337707		2.95405933		 0.00020727		 0.00036104		-0.00020022
O		2.65115061		3.67123873		0.49807421		 0.00015258		 0.00093882		-0.00029915
O		3.92309719		3.87348682		4.41389603		-0.00015258		-0.00093882		 0.00029915
O		4.09770413		5.31900740		2.20203546		-0.00043918		 0.00013752		 0.00004568
O		2.47654367		2.22571814		2.70993381		 0.00043918		-0.00013752		-0.00004568
O		3.44553285		1.12505284		0.25394869		-0.00008770		-0.00051299		 0.00012210
O		3.12871495		6.41967271		4.65802058		 0.00008770		 0.00051299		-0.00012210
