# total energy = -18531.3887913 eV	

CRYSTAL	
PRIMVEC	
		7.57056417		-0.00012647		-0.05429693	
		-0.00010539		6.84522803		-0.00041453	
		-0.49999124		-0.00026699		4.77436372	
PRIMCOORD
   30 1	
Mg		0.05706587		1.71160877		2.49600476		-0.00070601		-0.00026232		-0.00017210	
Mg		7.01340307		5.13322510		2.22364539		 0.00070600		 0.00026233		 0.00017209	
Mg		4.99734156		1.71262192		4.37127648		-0.00006159		-0.00044214		-0.00041961	
Mg		2.07312739		5.13221265		0.34837297		 0.00006159		 0.00044213		 0.00041963	
Mg		2.83763699		1.71169519		0.30771983		 0.00047241		-0.00023002		-0.00012261	
Mg		4.23283196		5.13313938		4.41193032		-0.00047239		 0.00023002		 0.00012261	
Si		0.00000000		0.00000000		0.00000000		0.00000000		0.00000000		-0.00000000	
Si		-0.00005340		3.42261402		-0.00020867		-0.00000000		-0.00000000		0.00000000	
Si		2.21069858		3.43856936		2.63479075		-0.00003046		-0.00031266		 0.00049742	
Si		4.85977037		3.40626522		2.08485870		 0.00003047		 0.00031266		-0.00049742	
Si		4.85988560		0.01598766		2.08511164		 0.00002720		-0.00032183		-0.00049775	
Si		2.21058335		6.82884691		2.63453781		-0.00002720		 0.00032182		 0.00049775	
O		5.95831427		3.79236359		0.70783015		 0.00008464		 0.00036912		-0.00025732	
O		1.11215397		3.05247099		4.01182000		-0.00008463		-0.00036912		 0.00025732	
O		1.11221791		0.36978470		4.01187691		-0.00009846		 0.00043196		 0.00023830	
O		5.95825104		6.47504987		0.70777254		 0.00009845		-0.00043195		-0.00023830	
O		6.24992349		3.03148995		3.16217706		 0.00007610		-0.00022323		-0.00027077	
O		0.82054546		3.81334463		1.55747309		-0.00007610		 0.00022324		 0.00027076	
O		0.82038246		6.45455644		1.55726090		-0.00005783		-0.00035142		 0.00025557	
O		6.25008649		0.39027814		3.16238854		 0.00005782		 0.00035141		-0.00025557	
O		2.03376914		1.71146263		2.11892496		 0.00009776		-0.00010377		 0.00022920	
O		5.03669980		5.13337194		2.60072448		-0.00009776		 0.00010377		-0.00022920	
O		3.34356449		3.75160506		1.22819328		-0.00006880		-0.00015840		-0.00011516	
O		3.72690446		3.09322952		3.49145617		 0.00006880		 0.00015839		 0.00011515	
O		3.72704146		0.32952080		3.49147444		 0.00005814		-0.00022324		 0.00011342	
O		3.34342748		6.51531377		1.22817501		-0.00005813		 0.00022323		-0.00011342	
O		4.74650774		1.71134811		1.48026648		 0.00012520		-0.00011371		-0.00021265	
O		2.32396051		5.13348576		3.23938296		-0.00012519		 0.00011372		 0.00021266	
O		7.36571271		1.71146123		0.43328920		 0.00084246		-0.00010865		 0.00011216	
O		-0.29524376		5.13337335		4.28636095		-0.00084247		 0.00010865		-0.00011216	
