# total energy = -92491.7093586 eV	

CRYSTAL	
PRIMVEC	
		21.35861937		-0.00005550		-0.00197950	
		-0.00005550		19.02630594		0.00001850	
		-0.00062900		0.00000000		5.45217184	
PRIMCOORD
   164 1	
Mg		2.99687041		3.42556905		2.81221267		 0.00016660		-0.00033262		 0.00024898	
Mg		18.36106446		15.60071284		2.63801112		-0.00016872		 0.00028117		-0.00025007	
Mg		7.68497007		15.60052414		5.53524054		-0.00036064		 0.00048668		 0.00023264	
Mg		13.67295000		3.42574850		-0.08500935		 0.00035983		-0.00050161		-0.00023350	
Mg		18.36108851		12.93864987		2.63807957		-0.00015715		-0.00029072		-0.00027684	
Mg		2.99684081		6.08761722		2.81213867		 0.00016582		 0.00028730		 0.00027057	
Mg		13.67295000		6.08730642		-0.08501305		 0.00037793		 0.00047318		-0.00021409	
Mg		7.68496637		12.93896067		5.53524424		-0.00037928		-0.00046343		 0.00021218	
Mg		3.13130066		1.48759421		5.51231164		 0.00010264		-0.00025233		-0.00023480	
Mg		18.22663237		17.53868214		-0.06208970		-0.00011506		 0.00023373		 0.00023953	
Mg		7.54705443		17.53932224		2.78377632		-0.00019438		 0.00006783		 0.00003025	
Mg		13.81087489		1.48695596		2.66644747		 0.00018312		-0.00009095		-0.00003993	
Mg		18.22658427		11.00075643		-0.06206010		-0.00010620		-0.00023857		 0.00023595	
Mg		3.13135616		8.02551621		5.51227279		 0.00010695		 0.00024624		-0.00022751	
Mg		13.81080274		8.02614336		2.66648447		 0.00020604		 0.00008593		-0.00004000	
Mg		7.54710993		11.00010523		2.78373562		-0.00020970		-0.00006196		 0.00002964	
Mg		2.83526367		19.13079764		2.63326032		-0.00033900		-0.00003645		-0.00002777	
Mg		18.52266936		-0.10453055		2.81696162		 0.00033402		 0.00004728		 0.00003270	
Mg		7.84739822		-0.10748685		5.35787364		-0.00033776		 0.00020719		 0.00012592	
Mg		13.51055885		19.13375394		0.09235200		 0.00031724		-0.00023156		-0.00012402	
Mg		18.52265086		9.61757622		2.81700417		 0.00034389		-0.00003639		 0.00003206	
Mg		2.83526552		9.40867792		2.63320852		-0.00034813		 0.00004036		-0.00003081	
Mg		13.51056255		9.40556437		0.09234645		 0.00033630		 0.00025091		-0.00011920	
Mg		7.84740932		9.62071567		5.35786994		-0.00035193		-0.00022742		 0.00012154	
Mg		3.08188531		4.75657186		5.64846608		 0.00057451		-0.00003346		 0.00033152	
Mg		18.27604401		14.26969893		-0.19824414		-0.00056574		 0.00000095		-0.00033447	
Mg		7.59574088		14.26976923		2.92003991		-0.00032058		 0.00000929		 0.00051337	
Mg		13.76219585		4.75650341		2.53019498		 0.00032351		-0.00001321		-0.00050792	
Si		-0.32968849		15.88349088		1.13484547		 0.00018203		-0.00020778		 0.00001196	
Si		21.68746241		3.14291866		4.31537647		 0.00029201		-0.00019868		-0.00001695	
Si		11.00695578		3.14286871		3.85901294		 0.00001027		-0.00006608		 0.00010441	
Si		10.35099945		15.88344648		1.59119235		-0.00010896		-0.00007897		-0.00011632	
Si		21.68752161		6.37028056		4.31528397		 0.00008267		-0.00000718		 0.00000071	
Si		-0.32962004		12.65598098		1.13491762		 0.00002875		 0.00006599		-0.00000313	
Si		10.35093470		12.65587183		1.59106470		 0.00014011		 0.00039386		-0.00009997	
Si		11.00703348		6.37032496		3.85912394		-0.00028049		-0.00021123		 0.00008819	
Si		-0.01285750		17.24423799		3.87579614		 0.00019855		-0.00007517		-0.00009215	
Si		21.37058887		1.78211605		1.57443135		 0.00037676		-0.00014421		 0.00007337	
Si		10.69092584		1.78378475		1.14733112		 0.00018724		-0.00006734		 0.00016118	
Si		10.66696094		17.24252489		4.30287602		-0.00009099		-0.00011271		-0.00016580	
Si		21.37062772		7.73100732		1.57439065		 0.00018705		 0.00008477		 0.00005380	
Si		-0.01277980		11.29521167		3.87580909		 0.00004762		 0.00008873		-0.00004780	
Si		10.66701089		11.29690072		4.30271507		-0.00003291		 0.00009925		-0.00005880	
Si		10.69090364		7.72932567		1.14747357		 0.00007255		 0.00005455		 0.00005254	
Si		4.85124191		17.48539659		0.97591012		-0.00026066		 0.00005868		-0.00003577	
Si		16.50667077		1.54087235		4.47430997		 0.00028644		-0.00004020		 0.00003295	
Si		5.82864868		1.54146990		3.70293769		 0.00023474		-0.00007059		-0.00000083	
Si		15.52932134		17.48483049		1.74727870		-0.00034710		-0.00002847		 0.00001978	
Si		16.50666522		7.97220107		4.47434512		 0.00026963		-0.00000843		 0.00003455	
Si		4.85118456		11.05403088		0.97587867		-0.00006745		 0.00009879		-0.00004912	
Si		15.52936019		11.05450633		1.74730830		-0.00036792		 0.00001494		 0.00001619	
Si		5.82853768		7.97172377		3.70290809		 0.00045473		 0.00010581		 0.00000251	
Si		5.01215490		15.86484843		3.72951294		 0.00004885		-0.00011434		-0.00022921	
Si		16.34568377		3.16140941		1.72071085		 0.00017975		 0.00014101		 0.00022191	
Si		5.66709188		3.16153521		1.00450742		-0.00007262		 0.00001778		-0.00026057	
Si		15.69089664		15.86476888		4.44571082		-0.00009146		-0.00012684		 0.00026844	
Si		16.34565417		6.35162701		1.72075710		 0.00016778		-0.00011284		 0.00022524	
Si		5.01215490		12.67462898		3.72946669		 0.00014761		 0.00014759		-0.00023469	
Si		15.69093364		12.67457163		4.44570527		-0.00017248		 0.00015959		 0.00026150	
Si		5.66699753		6.35168066		1.00451297		 0.00015680		-0.00011199		-0.00025669	
O		1.55332840		1.25446646		1.51780656		-0.00002747		-0.00012001		-0.00017261	
O		19.80475077		17.77177473		3.93241908		-0.00036709		 0.00025547		 0.00018001	
O		9.12493973		17.76753268		4.24356318		-0.00004267		 0.00031993		-0.00022364	
O		12.23301549		1.25871036		1.20664211		-0.00000648		-0.00027232		 0.00022461	
O		19.80470082		10.76767678		3.93243758		-0.00027800		-0.00024964		 0.00018737	
O		1.55327660		8.25862176		1.51775476		 0.00012975		 0.00018875		-0.00018567	
O		12.23290079		8.25444446		1.20671611		 0.00006702		 0.00028661		 0.00022529	
O		9.12505443		10.77182263		4.24345958		-0.00007300		-0.00031655		-0.00022376	
O		1.85630290		2.58192837		4.31429977		-0.00021245		 0.00025296		-0.00017618	
O		19.50178183		16.44429617		1.13592587		-0.00019607		-0.00009041		 0.00016692	
O		8.82421299		16.44570402		1.58613260		-0.00012481		-0.00015790		-0.00012214	
O		12.53371633		2.58057787		3.86407084		 0.00013018		 0.00018238		 0.00012381	
O		19.50176148		12.09501845		1.13595732		-0.00010866		 0.00011926		 0.00017728	
O		1.85622705		6.93130415		4.31423502		-0.00004371		-0.00018500		-0.00017721	
O		12.53359608		6.93253070		3.86420404		 0.00032284		-0.00010754		 0.00011073	
O		8.82432214		12.09370310		1.58597720		-0.00028407		 0.00009476		-0.00010829	
O		-0.17866004		14.26966933		1.09320382		-0.00038895		 0.00013393		 0.00008762	
O		21.53662267		4.75652006		4.35701442		 0.00033282		 0.00017062		-0.00008304	
O		10.85669508		4.75648491		3.81787634		 0.00046809		 0.00024056		 0.00019399	
O		10.50119169		14.26979143		1.63236040		-0.00047306		-0.00028088		-0.00019369	
O		1.97560569		4.75656261		1.77007440		 0.00011239		 0.00002066		 0.00038337	
O		19.38233473		14.26969338		3.68014939		-0.00014195		 0.00000900		-0.00038228	
O		8.70542634		14.26976738		4.49291727		-0.00016843		-0.00001537		 0.00012414	
O		12.65249743		4.75650156		0.95732502		 0.00017994		 0.00001801		-0.00012155	
O		1.12322932		-0.47109324		3.80325209		 0.00000417		-0.00053496		-0.00003459	
O		20.23478881		0.47110434		1.64698465		-0.00006544		 0.00038897		 0.00000514	
O		9.55825597		0.47026074		1.07583787		-0.00021374		 0.00052135		-0.00009890	
O		11.79972330		-0.47034214		4.37438777		 0.00023600		-0.00049633		 0.00009833	
O		20.23470741		9.04195243		1.64703090		-0.00004584		-0.00045537		 0.00001481	
O		1.12321637		9.98429061		3.80318179		 0.00005904		 0.00054355		-0.00004787	
O		11.79976030		9.98343221		4.37424532		 0.00023684		 0.00052828		 0.00012953	
O		9.55817272		9.04285893		1.07595442		-0.00019346		-0.00052675		-0.00011255	
O		0.43037289		16.49959267		-0.19368389		 0.00001043		 0.00004847		 0.00034856	
O		20.92759529		2.52665038		5.64394098		-0.00009315		 0.00003380		-0.00046704	
O		10.24758260		2.52762533		2.53001183		-0.00014849		-0.00005997		 0.00031195	
O		11.11034117		16.49862882		2.92010836		 0.00017621		 0.00017331		-0.00012206	
O		20.92757864		6.98656179		5.64382258		-0.00006200		-0.00002618		-0.00046418	
O		0.43036364		12.03975895		-0.19358214		 0.00004085		-0.00007475		 0.00031952	
O		11.11039112		12.04074315		2.92000476		 0.00015890		-0.00011510		-0.00022298	
O		10.24752895		6.98553875		2.53010063		-0.00011740		 0.00000354		 0.00041287	
O		0.41189324		16.47764612		2.49404783		 0.00006183		 0.00002768		 0.00023318	
O		20.94607309		2.54861728		2.95613156		-0.00014300		 0.00005729		-0.00011070	
O		10.26458225		2.54851368		-0.23458924		-0.00007943		 0.00008305		 0.00013985	
O		11.09333227		16.47765167		5.68482598		 0.00010413		 0.00002514		-0.00031198	
O		20.94605274		6.96441915		2.95600946		-0.00012366		-0.00006835		-0.00008780	
O		0.41188399		12.06187200		2.49414403		 0.00010540		-0.00002494		 0.00022166	
O		11.09342292		12.06183685		5.68469833		 0.00006819		-0.00004407		-0.00033410	
O		10.26448975		6.96452090		-0.23447639		-0.00003087		-0.00006067		 0.00016208	
O		4.03562133		2.99897386		1.02821702		 0.00020964		-0.00030463		 0.00009876	
O		17.32225434		16.02728028		4.42200307		-0.00006212		 0.00034761		-0.00009331	
O		6.64374571		16.02681593		3.75164819		-0.00016893		 0.00026120		 0.00018427	
O		14.71426502		2.99944931		1.69857375		-0.00000351		-0.00026920		-0.00018345	
O		17.32223399		12.51212128		4.42195497		-0.00001338		-0.00035911		-0.00008356	
O		4.03568053		6.51415506		1.02827067		 0.00004553		 0.00035310		 0.00008321	
O		14.71421507		6.51358526		1.69863480		-0.00000656		 0.00028100		-0.00018384	
O		6.64381786		12.51267628		3.75159084		-0.00022581		-0.00026559		 0.00018281	
O		4.19049778		1.22728811		3.71978564		 0.00050389		 0.00017979		-0.00023690	
O		17.16740195		17.79896603		1.73044000		-0.00040476		-0.00016039		 0.00023559	
O		6.48903576		17.79973563		0.99284317		-0.00016309		-0.00027657		-0.00017611	
O		14.86890836		1.22653701		4.45737692		 0.00013860		 0.00027911		 0.00017468	
O		17.16741675		10.74039298		1.73050845		-0.00039326		 0.00015488		 0.00022696	
O		4.19053293		8.28588891		3.71971349		 0.00036248		-0.00015407		-0.00022738	
O		14.86888801		8.28651976		4.45739727		 0.00012512		-0.00028200		 0.00017474	
O		6.48909126		10.73973438		0.99282282		-0.00024288		 0.00028918		-0.00017725	
O		3.88102979		-0.21984844		0.99394022		 0.00026939		 0.00025667		 0.00019498	
O		17.47694579		0.21980404		4.45626507		-0.00024463		-0.00028266		-0.00019802	
O		6.79948980		0.22032019		3.72051639		-0.00026033		-0.00027613		 0.00019699	
O		14.55850427		-0.22037754		1.72969445		 0.00026872		 0.00030369		-0.00019453	
O		17.47694209		9.29322128		4.45629467		-0.00023610		 0.00031532		-0.00018874	
O		3.88100944		9.73307541		0.99392727		 0.00017096		-0.00039170		 0.00019062	
O		14.55851167		9.73336401		1.72971850		 0.00026039		-0.00029263		-0.00020508	
O		6.79945280		9.29293083		3.72051269		-0.00031784		 0.00020177		 0.00020356	
O		4.58718402		14.26973593		3.67898204		 0.00034522		 0.00000200		-0.00022044	
O		16.77076751		4.75653856		1.77125470		-0.00038072		-0.00003058		 0.00021653	
O		6.09051432		4.75657186		6.40588751		-0.00010031		 0.00008844		-0.00008639	
O		15.26740205		14.26968228		-0.95565447		 0.00013044		-0.00003604		 0.00008523	
O		3.86839614		4.75660886		3.91378774		-0.00047840		 0.00002901		-0.00051259	
O		17.48952949		14.26965453		1.53643235		 0.00048694		 0.00000098		 0.00051236	
O		6.81322605		14.26973963		1.18403512		 0.00040642		-0.00000955		-0.00050185	
O		14.54471067		4.75652931		4.26620347		-0.00041677		 0.00001200		 0.00049885	
O		4.43406692		16.70982296		2.41758178		 0.00000188		 0.00008220		 0.00017103	
O		16.92388275		2.31643673		3.03264571		-0.00002150		-0.00007514		-0.00019240	
O		6.24438622		2.31757448		5.14420235		 0.00009138		-0.00012389		 0.00028847	
O		15.11353756		16.70868706		0.30600109		-0.00006977		 0.00016364		-0.00024367	
O		16.92386980		7.19658119		3.03269566		-0.00002776		 0.00008474		-0.00018478	
O		4.43409282		11.82970625		2.41753738		-0.00001728		-0.00012158		 0.00013218	
O		15.11361896		11.83062385		0.30601219		-0.00007453		-0.00015369		-0.00025832	
O		6.24430852		7.19564694		5.14418755		 0.00006758		 0.00011652		 0.00029986	
O		4.44587732		16.56995741		5.10832345		 0.00010409		 0.00010206		-0.00024303	
O		16.91207235		2.45630783		0.34188369		-0.00012591		-0.00008885		 0.00027674	
O		6.23438327		2.45678513		2.38329758		-0.00022783		-0.00014968		-0.00030926	
O		15.12353681		16.56946161		3.06694656		 0.00025172		 0.00020492		 0.00024202	
O		16.91202425		7.05674524		0.34193734		-0.00012855		 0.00010105		 0.00026313	
O		4.44593652		11.96953850		5.10825870		 0.00008314		-0.00014988		-0.00018507	
O		15.12349611		11.96986780		3.06694656		 0.00026211		-0.00019151		 0.00026913	
O		6.23443137		7.05641594		2.38329388		-0.00026526		 0.00014494		-0.00033039	
H		20.58955405		-0.35077849		1.27087411		 0.00000143		-0.00005562		-0.00025321	
H		0.76841413		0.35073409		4.17928308		-0.00001099		 0.00015122		 0.00029169	
H		11.44502836		0.34946314		3.99397783		-0.00000917		 0.00020622		-0.00023288	
H		9.91294906		-0.34951864		1.45631256		 0.00000406		-0.00020715		 0.00023077	
H		0.76889698		9.16268343		4.18008598		-0.00004238		-0.00019100		 0.00030162	
H		20.58906750		9.86362621		1.27016371		 0.00001459		 0.00011179		-0.00026495	
H		9.91303416		9.86270861		1.45611646		 0.00000417		 0.00020510		 0.00023561	
H		11.44486741		9.16355478		3.99422943		-0.00002428		-0.00023122		-0.00025014	
