# total energy = -92498.0469735 eV	

CRYSTAL	
PRIMVEC	
		18.68801495		0.00001850		-0.00051800	
		0.00001850		17.93672997		0.00000000	
		-0.00014800		0.00000000		5.29514384	
PRIMCOORD
   164 1	
Mg		2.42679663		3.15748371		2.16537129		-0.00005240		 0.00019734		-0.00015129	
Mg		16.26109252		14.77927772		3.12926936		 0.00006035		-0.00020592		 0.00015065	
Mg		6.91134820		14.77911677		4.81424006		 0.00007716		-0.00021087		-0.00006903	
Mg		11.77654650		3.15763911		0.48040059		-0.00008576		 0.00021645		 0.00006655	
Mg		16.26109437		12.12588569		3.12926936		 0.00005732		 0.00015694		 0.00015835	
Mg		2.42679663		5.81087018		2.16537129		-0.00005052		-0.00015237		-0.00015863	
Mg		11.77654280		5.81075178		0.48040059		-0.00006923		-0.00021766		 0.00008244	
Mg		6.91135005		12.12600779		4.81424006		 0.00006431		 0.00021000		-0.00008097	
Mg		2.51051838		1.42970401		4.81022001		 0.00027970		-0.00009832		 0.00013093	
Mg		16.17737263		16.50705557		0.48442064		-0.00027058		 0.00009196		-0.00013006	
Mg		6.82947645		16.50737932		2.16270174		-0.00023829		 0.00016437		 0.00022576	
Mg		11.85841825		1.42937471		3.13193891		 0.00022721		-0.00015165		-0.00022289	
Mg		16.17737078		10.39808934		0.48441879		-0.00027003		-0.00009978		-0.00013292	
Mg		2.51052208		7.53866653		4.81022001		 0.00027730		 0.00010769		 0.00013421	
Mg		11.85841085		7.53901803		3.13194076		 0.00026200		 0.00016573		-0.00023520	
Mg		6.82948385		10.39774154		2.16269804		-0.00026724		-0.00016952		 0.00023486	
Mg		2.53057238		17.81644483		2.06827034		 0.00009968		 0.00018841		 0.00047724	
Mg		16.15731493		0.12031475		3.22637031		-0.00009192		-0.00019139		-0.00047974	
Mg		6.81253785		0.12104365		4.71582191		-0.00008069		-0.00017775		 0.00041307	
Mg		11.87535500		17.81571223		0.57882058		 0.00007377		 0.00018857		-0.00041544	
Mg		16.15733528		8.84810574		3.22637771		-0.00009731		 0.00020549		-0.00047004	
Mg		2.53055573		9.08865013		2.06826479		 0.00010290		-0.00019952		 0.00046804	
Mg		11.87533465		9.08940863		0.57881688		 0.00010772		-0.00018493		-0.00040968	
Mg		6.81256190		8.84735094		4.71582376		-0.00011408		 0.00018481		 0.00040854	
Mg		2.39887828		4.48417787		4.82619106		 0.00069144		 0.00002447		-0.00077660	
Mg		16.28901272		13.45258171		0.46844959		-0.00068446		-0.00002800		 0.00077511	
Mg		6.94565090		13.45255951		2.17977354		-0.00088133		 0.00000337		-0.00077475	
Mg		11.74224381		4.48420007		3.11486711		 0.00087493		-0.00000869		 0.00077323	
Si		0.32766274		14.93992616		1.42011916		-0.00006640		 0.00020689		-0.00009425	
Si		18.36019866		2.99683711		3.87452149		 0.00016998		-0.00022976		 0.00009468	
Si		9.01876824		2.99657626		4.06783168		 0.00003715		-0.00033144		-0.00008531	
Si		9.66913942		14.94019811		1.22680526		-0.00008676		 0.00027694		 0.00009487	
Si		18.36018756		5.97155562		3.87449744		 0.00022715		 0.00031414		 0.00010131	
Si		0.32768309		11.96520580		1.42014136		-0.00015295		-0.00032038		-0.00009772	
Si		9.66908947		11.96484690		1.22678306		 0.00007358		 0.00000334		 0.00012763	
Si		9.01883854		5.97193487		4.06785943		-0.00019072		-0.00008281		-0.00013394	
Si		0.36406519		16.36927127		4.09727813		 0.00002211		 0.00013834		-0.00001597	
Si		18.32379436		1.56749755		1.19735881		 0.00008731		-0.00017968		 0.00002689	
Si		8.98123729		1.56684080		1.44967106		-0.00016883		-0.00005033		 0.00001359	
Si		9.70668887		16.36990027		3.84496589		 0.00004366		 0.00011765		 0.00000066	
Si		18.32372591		7.40085818		1.19734031		 0.00030687		 0.00033982		 0.00003418	
Si		0.36413734		10.53588659		4.09729663		-0.00020648		-0.00029440		-0.00002318	
Si		9.70672772		10.53525019		3.84495109		-0.00008156		-0.00017078		 0.00000835	
Si		8.98118734		7.40151493		1.44968771		 0.00000582		 0.00014770		-0.00000165	
Si		4.22038638		16.46878277		0.33619679		-0.00016419		-0.00005530		 0.00006786	
Si		14.46750648		1.46796016		4.95843830		 0.00015769		 0.00010222		-0.00004985	
Si		5.12142145		1.46868351		2.98469001		-0.00003166		 0.00014029		 0.00001920	
Si		13.56647140		16.46807977		2.30994693		 0.00002768		-0.00015596		-0.00000862	
Si		14.46747133		7.50039188		4.95845495		 0.00030272		 0.00009280		-0.00010948	
Si		4.22041968		10.43637509		0.33618014		-0.00029981		-0.00012023		 0.00012282	
Si		13.56642885		10.43706514		2.30995063		 0.00015382		 0.00012425		-0.00003749	
Si		5.12146770		7.49968333		2.98468446		-0.00016484		-0.00009292		 0.00005070	
Si		4.22853563		14.94293056		3.02592466		-0.00022669		-0.00002226		 0.00012395	
Si		14.45935723		2.99381606		2.26871413		 0.00021509		 0.00005572		-0.00011367	
Si		5.11337765		2.99365881		0.37913714		 0.00003023		 0.00001477		 0.00011760	
Si		13.57451705		14.94311556		4.91549981		-0.00003610		-0.00006968		-0.00010511	
Si		14.45937203		5.97452117		2.26872338		 0.00018510		 0.00017715		-0.00015354	
Si		4.22851713		11.96224950		3.02591356		-0.00018298		-0.00021486		 0.00016389	
Si		13.57445230		11.96210520		4.91551091		 0.00017850		-0.00020693		-0.00015320	
Si		5.11344240		5.97464882		0.37912789		-0.00017630		 0.00021296		 0.00015790	
O		1.20860496		1.23086416		1.21040871		 0.00026660		-0.00004821		 0.00037443	
O		17.47931009		16.70588801		4.08423008		-0.00035012		 0.00006932		-0.00037434	
O		8.13415931		16.70751231		3.85714444		-0.00035811		 0.00009533		 0.00038110	
O		10.55370579		1.22925281		1.43749436		 0.00045193		-0.00012324		-0.00038171	
O		17.47925274		10.19924210		4.08422823		-0.00017910		-0.00001222		-0.00036874	
O		1.20866231		7.73752302		1.21041241		 0.00010322		-0.00000830		 0.00036861	
O		10.55375389		7.73915657		1.43749251		 0.00031529		 0.00008316		-0.00037613	
O		8.13412416		10.19759930		3.85714629		-0.00025806		-0.00006983		 0.00037624	
O		1.26220686		2.77590457		3.88230259		 0.00009708		 0.00044660		-0.00009042	
O		17.42570634		15.16085131		1.41233806		-0.00017753		-0.00043660		 0.00008924	
O		8.07901636		15.16108256		1.23515061		-0.00021007		-0.00040160		-0.00011068	
O		10.60885984		2.77567887		4.05949003		 0.00026500		 0.00039802		 0.00010978	
O		17.42567859		11.74427881		1.41234361		-0.00009395		 0.00047697		 0.00009326	
O		1.26223091		6.19248262		3.88229704		 0.00003076		-0.00048313		-0.00009407	
O		10.60883949		6.19271202		4.05949373		 0.00034932		-0.00037543		 0.00010991	
O		8.07902931		11.74404201		1.23514691		-0.00026845		 0.00038817		-0.00011085	
O		0.90290172		13.45253916		1.21269531		-0.00021484		 0.00005861		 0.00055206	
O		17.78499668		4.48421117		4.08194533		 0.00019651		-0.00003063		-0.00054899	
O		8.44430810		4.48408352		3.86015069		 0.00027618		 0.00038407		 0.00055528	
O		10.24357920		13.45264091		1.43448811		-0.00025769		-0.00026417		-0.00055204	
O		1.29319991		4.48418897		1.18839557		-0.00008382		-0.00002048		-0.00001688	
O		17.39469664		13.45257061		4.10624508		 0.00007189		 0.00002273		 0.00001694	
O		8.04682266		13.45256506		3.83891454		 0.00007601		-0.00000514		 0.00000838	
O		10.64106649		4.48419267		1.45572611		-0.00006490		 0.00000947		-0.00000845	
O		1.18975902		-0.08663180		3.76995394		 0.00041291		 0.00016593		 0.00002783	
O		17.49815234		0.08661330		1.52468671		-0.00054328		-0.00000822		-0.00005166	
O		8.15316251		0.08732185		1.12222662		-0.00029088		-0.00040186		 0.00003181	
O		10.53466744		-0.08723860		4.17241588		 0.00044765		 0.00019304		-0.00006244	
O		17.49824484		8.88188304		1.52471261		-0.00077197		-0.00030830		-0.00010111	
O		1.18968502		9.05492278		3.76993729		 0.00064452		 0.00014574		 0.00007661	
O		10.53465264		9.05562763		4.17242698		 0.00048649		-0.00015792		-0.00007056	
O		8.15321431		8.88110234		1.12221922		-0.00039804		 0.00025906		 0.00005538	
O		0.95278142		15.93062518		0.24939849		 0.00078462		-0.00026786		-0.00030191	
O		17.73511698		2.00613254		5.04524400		-0.00080918		 0.00026698		 0.00029082	
O		8.39282630		2.00660059		2.89683536		-0.00075625		 0.00021694		-0.00037211	
O		10.29505730		15.93016083		2.39781083		 0.00078426		-0.00022272		 0.00035034	
O		17.73512623		6.96230645		5.04524585		-0.00082805		-0.00031817		 0.00020810	
O		0.95277402		10.97445313		0.24939849		 0.00080511		 0.00031673		-0.00022095	
O		10.29505360		10.97496188		2.39780343		 0.00079634		 0.00023777		 0.00032109	
O		8.39283555		6.96179770		2.89683721		-0.00077999		-0.00023793		-0.00032855	
O		0.95083707		15.55531569		2.81789402		-0.00006989		 0.00047952		 0.00001997	
O		17.73706133		2.38144573		2.47674478		 0.00004672		-0.00048224		-0.00002074	
O		8.39521650		2.38146608		0.17021295		 0.00011343		-0.00048209		 0.00005089	
O		10.29266710		15.55529349		5.12442585		-0.00008633		 0.00047808		-0.00004121	
O		17.73707798		6.58695811		2.47669298		 0.00001411		 0.00042662		 0.00005774	
O		0.95082042		11.34979962		2.81794767		-0.00003591		-0.00042612		-0.00005559	
O		10.29265600		11.34984402		5.12439810		-0.00007172		-0.00045687		-0.00001133	
O		8.39523130		6.58691741		0.17024255		 0.00008756		 0.00045479		 0.00000995	
O		3.50466950		2.90847371		0.39798309		-0.00010993		-0.00009197		 0.00026542	
O		15.18321965		15.02828216		4.89665756		 0.00011656		 0.00010041		-0.00026433	
O		5.83703103		15.02811196		3.04600271		 0.00024364		 0.00011741		 0.00023486	
O		12.85086182		2.90864946		2.24863793		-0.00024262		-0.00012356		-0.00023419	
O		15.18325665		11.87685350		4.89665941		-0.00000763		-0.00006092		-0.00026816	
O		3.50463250		6.05990607		0.39798124		 0.00001413		 0.00005674		 0.00026922	
O		12.85086367		6.05975252		2.24863978		-0.00024446		 0.00011610		-0.00023369	
O		5.83703103		11.87700335		3.04600086		 0.00023661		-0.00010943		 0.00023524	
O		3.49260565		1.37440381		2.99837816		 0.00019870		-0.00069691		 0.00010108	
O		15.19528535		16.56235206		2.29626248		-0.00019921		 0.00069966		-0.00010077	
O		5.84910783		16.56321046		0.35032524		-0.00005144		 0.00065508		 0.00011175	
O		12.83878317		1.37354911		4.94431725		 0.00005710		-0.00066140		-0.00011071	
O		15.19530200		10.34278545		2.29625878		-0.00027320		-0.00068673		-0.00010288	
O		3.49258900		7.59397413		2.99838186		 0.00027932		 0.00068238		 0.00010326	
O		12.83882017		7.59485658		4.94431725		-0.00004058		 0.00065383		-0.00011550	
O		5.84907453		10.34190115		0.35032339		 0.00003936		-0.00065180		 0.00011514	
O		3.51586940		-0.02117325		0.35195139		 0.00025002		-0.00004594		 0.00008400	
O		15.17199940		0.02120470		4.94268185		-0.00023770		 0.00002232		-0.00008278	
O		5.82546113		0.02175785		3.00020596		-0.00018989		-0.00018108		 0.00006892	
O		12.86241137		-0.02173380		2.29442728		 0.00018840		 0.00017914		-0.00006902	
O		15.17203455		8.94725649		4.94268925		-0.00032213		-0.00017418		-0.00008549	
O		3.51585645		8.98949754		0.35195139		 0.00032844		 0.00018310		 0.00008604	
O		12.86242987		8.99013209		2.29443098		 0.00015810		-0.00020047		-0.00006754	
O		5.82546483		8.94662934		3.00020966		-0.00016362		 0.00018699		 0.00006854	
O		3.62075884		13.45249476		2.84596222		-0.00022842		 0.00018566		 0.00042919	
O		15.06713401		4.48426112		2.44867843		 0.00022087		-0.00017821		-0.00043012	
O		5.72036448		4.48425372		5.49388749		 0.00034817		-0.00020005		 0.00041429	
O		12.96752652		13.45249291		-0.19924684		-0.00034071		 0.00023901		-0.00041530	
O		3.43763660		4.48419082		3.16249906		-0.00020878		-0.00002178		 0.00031173	
O		15.25025625		13.45256506		2.13214344		 0.00020602		 0.00002505		-0.00031266	
O		5.90225648		13.45256136		0.51772803		 0.00023866		-0.00000112		 0.00032769	
O		12.78563452		4.48419637		4.77691446		-0.00023599		 0.00000403		-0.00032828	
O		3.62800159		15.92005613		1.81446700		 0.00016968		 0.00037398		 0.00043153	
O		15.05988941		2.01670714		3.48016810		-0.00016495		-0.00038820		-0.00041634	
O		5.71463503		2.01716779		4.46271787		-0.00017074		-0.00039538		 0.00039958	
O		12.97325782		15.91958808		0.83191908		 0.00016604		 0.00040557		-0.00038820	
O		15.05990051		6.95171890		3.48017550		-0.00018549		 0.00035550		-0.00044982	
O		3.62799049		10.98503513		1.81445960		 0.00018902		-0.00034504		 0.00046164	
O		12.97326152		10.98553833		0.83192278		 0.00014322		-0.00039582		-0.00041201	
O		5.71463133		6.95122310		4.46271417		-0.00014314		 0.00038697		 0.00042235	
O		3.62545414		15.59311119		4.39716497		-0.00036244		 0.00008568		-0.00008347	
O		15.06243686		2.34365578		0.89748862		 0.00036401		-0.00011573		 0.00004050	
O		5.71666078		2.34362063		1.75016655		 0.00038463		-0.00002412		-0.00002438	
O		12.97123207		15.59312969		3.54448520		-0.00038867		 0.00004573		-0.00000695	
O		15.06244241		6.62477581		0.89744977		 0.00035567		 0.00003933		 0.00015307	
O		3.62544859		11.31197452		4.39720012		-0.00035397		-0.00001586		-0.00018716	
O		12.97123947		11.31198562		3.54445745		-0.00041073		 0.00000272		 0.00006739	
O		5.71665338		6.62477951		1.75019245		 0.00041348		-0.00002354		-0.00009718	
H		18.12139512		-0.64963858		1.64361210		 0.00068341		 0.00021535		-0.00021178	
H		0.56644223		0.64970333		3.65101929		-0.00055800		-0.00034937		 0.00023366	
H		9.91235151		0.65011773		4.29035892		-0.00053100		-0.00034060		-0.00024562	
H		8.77556539		-0.65014178		1.00427062		 0.00037488		 0.00051239		 0.00027261	
H		0.56649958		8.31874861		3.65105444		-0.00078592		 0.00010192		 0.00018889	
H		18.12135812		9.61797027		1.64358435		 0.00091117		 0.00003381		-0.00016693	
H		8.77555614		9.61849382		1.00428912		 0.00047922		-0.00040525		 0.00025177	
H		9.91236076		8.31829166		4.29034967		-0.00056270		 0.00031774		-0.00023713	
