# total energy = -24716.3596724 eV	

CRYSTAL	
PRIMVEC	
		9.53870007		0.00000000		0.38154762	
		0.00000000		8.66010381		0.00000000	
		-1.48778561		0.00000000		4.91670237	
PRIMCOORD
   40 1	
Mg		-0.37194592		7.83046303		1.22917559		 0.00000009		 0.00062196		-0.00000010	
Mg		-1.11583777		0.82963696		3.68752869		-0.00000009		-0.00062196		 0.00000010	
Mg		4.39740411		3.50041303		1.41995036		 0.00000009		 0.00063126		-0.00000012	
Mg		3.65351226		5.15968696		3.87830250		-0.00000009		-0.00063126		 0.00000012	
Mg		-0.37194592		2.47332460		1.22917559		-0.00000001		 0.00018473		-0.00000015	
Mg		-1.11583777		6.18677443		3.68752869		 0.00000001		-0.00018473		 0.00000015	
Mg		4.39740411		6.80337460		1.41995036		-0.00000001		 0.00016193		-0.00000014	
Mg		3.65351226		1.85672539		3.87830250		 0.00000001		-0.00016193		 0.00000014	
Si		2.42194627		0.79655607		1.31953349		-0.00052388		-0.00007942		 0.00024609	
Si		5.62897010		7.86354392		3.97871841		 0.00052388		 0.00007942		-0.00024609	
Si		6.37286195		0.79655607		1.52036627		 0.00052179		-0.00007701		-0.00024820	
Si		1.67805251		7.86354392		3.77788659		-0.00052179		 0.00007701		 0.00024820	
Si		7.19129535		5.12660607		1.51030826		-0.00050795		-0.00017649		 0.00021590	
Si		0.85962007		3.53349392		3.78794460		 0.00050795		 0.00017649		-0.00021590	
Si		1.60351192		5.12660607		1.32959150		 0.00050547		-0.00017368		-0.00021841	
Si		6.44740254		3.53349392		3.96866040		-0.00050547		 0.00017368		 0.00021841	
O		0.87255916		0.71705617		0.72162027		-0.00048761		 0.00028844		 0.00021380	
O		7.17835721		7.94304287		4.57663259		 0.00048761		-0.00028844		-0.00021380	
O		7.92224906		0.71705617		2.11827950		 0.00048900		 0.00028828		-0.00021315	
O		0.12866636		7.94304287		3.17997336		-0.00048900		-0.00028828		 0.00021315	
O		5.64190920		5.04710712		0.91239408		-0.00052477		 0.00029596		 0.00020311	
O		2.40900717		3.61299383		4.38585878		 0.00052477		-0.00029596		-0.00020311	
O		3.15289902		5.04710712		1.92750568		 0.00052635		 0.00029581		-0.00020237	
O		4.89801544		3.61299383		3.37074717		-0.00052635		-0.00029581		 0.00020237	
O		2.99530347		2.23170800		1.70175127		-0.00025448		-0.00012798		-0.00048251	
O		5.05561099		6.42839294		3.59650159		 0.00025448		 0.00012798		 0.00048251	
O		5.79950283		2.23170800		1.13814850		 0.00025540		-0.00013008		 0.00048384	
O		2.25141163		6.42839294		4.16010341		-0.00025540		 0.00013008		-0.00048384	
O		7.76465446		6.56175705		1.89252508		-0.00022530		-0.00005332		-0.00045185	
O		0.28626095		2.09834199		3.40572778		 0.00022530		 0.00005332		 0.00045185	
O		1.03015280		6.56175705		0.94737469		 0.00022644		-0.00005582		 0.00045342	
O		7.02076261		2.09834199		4.35087817		-0.00022644		 0.00005582		-0.00045342	
O		3.34117647		0.05629088		0.26203333		-0.00008166		 0.00053979		 0.00003392	
O		4.70973895		8.60380911		5.03621953		 0.00008166		-0.00053979		-0.00003392	
O		5.45363079		0.05629088		2.57786643		 0.00008151		 0.00053956		-0.00003374	
O		2.59728367		8.60380911		2.72038547		-0.00008151		-0.00053956		 0.00003374	
O		8.11052650		4.38634087		0.45280714		-0.00009613		 0.00054085		 0.00003797	
O		-0.05961109		4.27375912		4.84544572		 0.00009613		-0.00054085		-0.00003797	
O		0.68428076		4.38634087		2.38709262		 0.00009591		 0.00054059		-0.00003774	
O		7.36663465		4.27375912		2.91116023		-0.00009591		-0.00054059		 0.00003774	
