# total energy = -24715.0718731 eV	

CRYSTAL	
PRIMVEC	
		9.53870161		0.00000000		1.14464189	
		0.00000000		8.66010045		0.00000000	
		-1.08904541		0.00000000		4.78172960	
PRIMCOORD
   40 1	
Mg		-0.27226231		7.83046302		1.19543288		-0.00000001		-0.00087037		 0.00000002	
Mg		-0.81678694		0.82963744		3.58629960		 0.00000001		 0.00087037		-0.00000002	
Mg		4.49708849		3.50041279		1.76775478		-0.00000001		-0.00086967		 0.00000003	
Mg		3.95256291		5.15968671		4.15862246		 0.00000001		 0.00086967		-0.00000003	
Mg		-0.27226231		2.47332474		1.19543288		0.00000000		 0.00032817		 0.00000004	
Mg		-0.81678694		6.18677475		3.58629960		-0.00000000		-0.00032817		-0.00000004	
Mg		4.49708849		6.80337497		1.76775478		0.00000000		 0.00032740		 0.00000003	
Mg		3.95256291		1.85672548		4.15862246		-0.00000000		-0.00032740		-0.00000003	
Si		2.51991454		0.79655624		1.50937094		-0.00039085		-0.00001559		 0.00026397	
Si		5.92973590		7.86354422		4.41700631		 0.00039085		 0.00001559		-0.00026397	
Si		6.47425957		0.79655624		2.02613863		 0.00039116		-0.00001598		-0.00026356	
Si		1.97538991		7.86354422		3.90023765		-0.00039116		 0.00001598		 0.00026356	
Si		7.28926534		5.12660646		2.08169284		-0.00043903		-0.00001714		 0.00024874	
Si		1.16038606		3.53349399		3.84468441		 0.00043903		 0.00001714		-0.00024874	
Si		1.70490972		5.12660646		1.45381673		 0.00043955		-0.00001772		-0.00024811	
Si		6.74473975		3.53349399		4.47255956		-0.00043955		 0.00001772		 0.00024811	
O		0.92758408		0.71705625		0.78922407		 0.00061843		 0.00010660		-0.00014227	
O		7.52206731		7.94304325		5.13715317		-0.00061843		-0.00010660		 0.00014227	
O		8.06659098		0.71705625		2.74628742		-0.00061861		 0.00010664		 0.00014216	
O		0.38306042		7.94304325		3.18008983		 0.00061861		-0.00010664		-0.00014216	
O		5.69693393		5.04710744		1.36154598		 0.00065272		 0.00010623		-0.00013208	
O		2.75271555		3.61299398		4.56483127		-0.00065272		-0.00010623		 0.00013208	
O		3.29724113		5.04710744		2.17396359		-0.00065300		 0.00010628		 0.00013196	
O		5.15240930		3.61299398		3.75241174		 0.00065300		-0.00010628		-0.00013196	
O		3.12206179		2.23170823		1.93630521		 0.00003334		 0.00003572		-0.00035320	
O		5.32758769		6.42839319		3.99007108		-0.00003334		-0.00003572		 0.00035320	
O		5.87211328		2.23170823		1.59920532		-0.00003351		 0.00003605		 0.00035296	
O		2.57753812		6.42839319		4.32717193		 0.00003351		-0.00003605		-0.00035296	
O		7.89141259		6.56175749		2.50862808		 0.00004207		 0.00004194		-0.00034708	
O		0.55823785		2.09834200		3.41774917		-0.00004207		-0.00004194		 0.00034708	
O		1.10276343		6.56175749		1.02688341		-0.00004232		 0.00004244		 0.00034671	
O		7.34688796		2.09834200		4.89949383		 0.00004232		-0.00004244		-0.00034671	
O		3.35146379		0.05629108		0.52891592		 0.00017641		-0.00030624		-0.00039531	
O		5.09818664		8.60380938		5.39746133		-0.00017641		 0.00030624		 0.00039531	
O		5.64271127		0.05629108		3.00659365		-0.00017640		-0.00030622		 0.00039528	
O		2.80693917		8.60380938		2.91978263		 0.00017640		 0.00030622		-0.00039528	
O		8.12081364		4.38634130		1.10123782		 0.00018789		-0.00030309		-0.00039418	
O		0.32883680		4.27375915		4.82513943		-0.00018789		 0.00030309		 0.00039418	
O		0.87336142		4.38634130		2.43427175		-0.00018787		-0.00030305		 0.00039412	
O		7.57628997		4.27375915		3.49210550		 0.00018787		 0.00030305		-0.00039412	
