# total energy = -24706.5916937 eV	

CRYSTAL	
PRIMVEC	
		9.53870319		0.00000000		-1.52619676	
		0.00000000		8.66009508		0.00000000	
		-2.48462564		0.00000000		5.25413504	
PRIMCOORD
   40 1	
Mg		-0.62115593		7.83046232		1.31353424		 0.00000331		 0.00034972		-0.00000301	
Mg		-1.86346682		0.82963662		3.94060176		-0.00000331		-0.00034972		 0.00000301	
Mg		4.14819373		3.50041285		0.55043779		 0.00000349		 0.00031845		-0.00000321	
Mg		2.90588284		5.15968706		3.17750628		-0.00000349		-0.00031845		 0.00000321	
Mg		-0.62115593		2.47332535		1.31353424		 0.00000100		-0.00055073		-0.00000633	
Mg		-1.86346682		6.18677456		3.94060176		-0.00000100		 0.00055073		 0.00000633	
Mg		4.14819373		6.80337482		0.55043779		 0.00000098		-0.00053674		-0.00000608	
Mg		2.90588284		1.85672509		3.17750628		-0.00000098		 0.00053674		 0.00000608	
Si		2.17702248		0.79655587		0.84494196		-0.00028749		-0.00057414		-0.00049889	
Si		4.87705506		7.86354404		2.88300211		 0.00028749		 0.00057414		 0.00049889	
Si		6.11936595		0.79655587		0.25593363		 0.00017527		-0.00051840		 0.00047892	
Si		0.93471063		7.86354404		3.47200948		-0.00017527		 0.00051840		-0.00047892	
Si		6.94637311		5.12660534		0.08184551		 0.00009018		-0.00038372		-0.00039098	
Si		0.10770540		3.53349360		3.64609759		-0.00009018		 0.00038372		 0.00039098	
Si		1.35001629		5.12660534		1.01903007		-0.00020981		-0.00032608		 0.00036941	
Si		5.70406126		3.53349360		2.70891400		 0.00020981		 0.00032608		-0.00036941	
O		0.73499544		0.71705581		0.55261130		-0.00026715		 0.00003461		-0.00071392	
O		6.31908210		7.94304313		3.17533181		 0.00026715		-0.00003461		 0.00071392	
O		7.56139396		0.71705581		0.54826526		 0.00034553		 0.00003267		 0.00074825	
O		-0.50731642		7.94304313		3.17967882		-0.00034553		-0.00003267		-0.00074825	
O		5.50434510		5.04710721		-0.21048515		-0.00052164		 0.00002824		-0.00081322	
O		1.54973148		3.61299366		3.93842922		 0.00052164		-0.00002824		 0.00081322	
O		2.79204333		5.04710721		1.31136074		 0.00060592		 0.00002633		 0.00084994	
O		4.26203421		3.61299366		2.41658334		-0.00060592		-0.00002633		-0.00084994	
O		2.67840958		2.23170788		1.11536562		 0.00011286		-0.00018714		-0.00061073	
O		4.37566700		6.42839300		2.61257652		-0.00011286		 0.00018714		 0.00061073	
O		5.61797886		2.23170788		-0.01449004		-0.00007888		-0.00024490		 0.00060768	
O		1.43609772		6.42839300		3.74243411		 0.00007888		 0.00024490		-0.00060768	
O		7.44775924		6.56175638		0.35227014		-0.00001088		-0.00039014		-0.00061073	
O		-0.39368170		2.09834159		3.37567297		 0.00001088		 0.00039014		 0.00061073	
O		0.84862919		6.56175638		0.74860545		 0.00004616		-0.00045001		 0.00060736	
O		6.20544835		2.09834159		2.97933766		-0.00004616		 0.00045001		-0.00060736	
O		3.31545818		0.05629089		-0.40517326		 0.00008188		-0.00027653		-0.00000162	
O		3.73861840		8.60380902		4.13311637		-0.00008188		 0.00027653		 0.00000162	
O		4.98093026		0.05629089		1.50604885		-0.00008137		-0.00027892		 0.00000408	
O		2.07314729		8.60380902		2.22189523		 0.00008137		 0.00027892		-0.00000408	
O		8.08480784		4.38634036		-1.16826874		 0.00005635		-0.00026599		-0.00001654	
O		-1.03073126		4.27375858		4.89621282		-0.00005635		 0.00026599		 0.00001654	
O		0.21157963		4.38634036		2.26914530		-0.00005569		-0.00026809		 0.00001901	
O		6.84249695		4.27375858		1.45879878		 0.00005569		 0.00026809		-0.00001901	
