# total energy = -10831.8821453 eV	

CRYSTAL	
PRIMVEC	
		3.03200014		0.00000000		0.00000000	
		-1.51600007		2.62578792		0.00000000	
		0.00000000		0.00000000		14.96000089	
PRIMCOORD
   13 1	
Mg		1.51600007		0.87526294		2.49333318		-0.00000000		0.00000000		 0.00017906	
Mg		0.00000000		1.75052619		12.46666650		0.00000000		-0.00000000		-0.00017906	
Mg		0.00000000		0.00000000		0.00000000		0.00000000		0.00000000		0.00000000	
Mg		0.00000000		1.75052619		4.98666727		0.00000000		0.00000000		-0.00018027	
Mg		1.51600007		0.87526294		9.97333332		0.00000000		-0.00000000		 0.00018027	
O		1.51600007		0.87526294		13.71333461		0.00000000		0.00000000		 0.00036178	
O		0.00000000		1.75052619		1.24666598		0.00000000		-0.00000000		-0.00036178	
O		1.51600007		0.87526294		6.08872019		0.00000000		-0.00000000		-0.00009985	
O		0.00000000		1.75052619		8.87128041		0.00000000		0.00000000		 0.00009985	
O		0.00000000		0.00000000		11.22299250		0.00000000		-0.00000000		-0.00041859	
O		0.00000000		0.00000000		3.73700809		0.00000000		0.00000000		 0.00041859	
H		1.51600007		0.87526294		7.07907240		0.00000000		0.00000000		-0.00016661	
H		0.00000000		1.75052619		7.88092941		0.00000000		0.00000000		 0.00016661	
