# total energy = -12324.3380086 eV

CRYSTAL
PRIMVEC
		2.46200063		-0.39392120		0.00000000
		-1.28847993		8.05299832		0.00000000
		0.00000000		0.00000000		6.10799885
PRIMECORD
   20 1
O		-0.09405903		0.58786888		1.52699984		 0.00001539		 0.00018498		 0.00044654
O		-1.19442090		7.46513020		4.58099951		-0.00001539		-0.00018498		-0.00044654
O		0.49270082		4.41740844		1.52699984		 0.00001764		 0.00020120		 0.00044443
O		0.68081888		3.24167069		4.58099951		-0.00001764		-0.00020120		-0.00044443
O		-0.46771806		2.92323856		2.69362777		-0.00049899		 0.00027369		 0.00024917
O		-0.82076187		5.12976051		3.41437159		 0.00049899		-0.00027369		-0.00024917
O		-0.82076187		5.12976051		5.74762744		 0.00047277		 0.00039139		 0.00003284
O		-0.46771806		2.92323856		0.36037191		-0.00047277		-0.00039139		-0.00003284
O		0.11904204		6.75277912		2.69362777		-0.00049874		 0.00028190		 0.00025205
O		1.05447791		0.90630100		3.41437159		 0.00049874		-0.00028190		-0.00025205
O		1.05447791		0.90630100		5.74762744		 0.00047266		 0.00038444		 0.00003474
O		0.11904204		6.75277912		0.36037191		-0.00047266		-0.00038444		-0.00003474
Si		0.00000000		0.00000000		0.00000000		0.00000000		0.00000000		0.00000000
Si		0.00000000		0.00000000		3.05399968		0.00000000		0.00000000		0.00000000
Si		0.58675985		3.82953956		0.00000000		0.00000000		0.00000000		0.00000000
Si		0.58675985		3.82953956		3.05399968		0.00000000		0.00000000		0.00000000
Mg		-0.32598487		2.03740867		4.58099951		-0.00056377		-0.00005619		 0.00019644
Mg		-0.96249481		6.01559040		1.52699984		 0.00056377		 0.00005619		-0.00019644
Mg		0.26077398		5.86694923		4.58099951		-0.00056608		-0.00007658		 0.00019592
Mg		0.91274497		1.79213089		1.52699984		 0.00056608		 0.00007658		-0.00019592
