# total energy = -12339.4641921 eV

CRYSTAL
PRIMVEC
		2.46199993		-0.09847990		0.00000000
		-0.32211955		8.05299855		0.00000000
		0.00000000		0.00000000		6.10799838
PRIMECORD
   20 1
O		-0.02351488		0.58786891		1.52699997		-0.00002665		 0.00012406		-0.00000935
O		-0.29860491		7.46513038		4.58099965		 0.00002665		-0.00012406		 0.00000935
O		1.04642481		4.56512873		1.52699997		-0.00002663		 0.00012406		-0.00000934
O		1.09345483		3.38939066		4.58099965		 0.00002663		-0.00012406		 0.00000934
O		-0.11693010		2.92323884		2.69362776		-0.00003380		-0.00001299		 0.00024163
O		-0.20518995		5.12976070		3.41437185		 0.00003380		 0.00001299		-0.00024163
O		-0.20518995		5.12976070		5.74762769		 0.00003062		 0.00000802		 0.00024754
O		-0.11693010		2.92323884		0.36037192		-0.00003062		-0.00000802		-0.00024754
O		0.95300985		6.90049940		2.69362776		-0.00003379		-0.00001299		 0.00024159
O		1.18687004		1.05402098		3.41437185		 0.00003379		 0.00001299		-0.00024159
O		1.18687004		1.05402098		5.74762769		 0.00003063		 0.00000801		 0.00024754
O		0.95300985		6.90049940		0.36037192		-0.00003063		-0.00000801		-0.00024754
Si		0.00000000		0.00000000		0.00000000		0.00000000		0.00000000		0.00000000
Si		0.00000000		0.00000000		3.05399968		0.00000000		0.00000000		0.00000000
Si		1.06993994		3.97725982		0.00000000		0.00000000		0.00000000		0.00000000
Si		1.06993994		3.97725982		3.05399968		0.00000000		0.00000000		0.00000000
Mg		-0.08149601		2.03740885		4.58099965		-0.00005317		-0.00036385		-0.00000878
Mg		-0.24062403		6.01559069		1.52699997		 0.00005317		 0.00036385		 0.00000878
Mg		0.98844393		6.01466966		4.58099965		-0.00005315		-0.00036379		-0.00000878
Mg		1.15143595		1.93985097		1.52699997		 0.00005315		 0.00036379		 0.00000878
