# total energy = -12339.4641921 eV

CRYSTAL
PRIMVEC
		2.46199993		0.09847990		0.00000000
		0.32211955		8.05299855		0.00000000
		0.00000000		0.00000000		6.10799838
PRIMECORD
   20 1
O		0.02351488		0.58786891		1.52699997		 0.00002688		 0.00012404		-0.00001040
O		0.29860491		7.46513038		4.58099965		-0.00002688		-0.00012404		 0.00001040
O		1.41557487		4.66360863		1.52699997		 0.00002682		 0.00012407		-0.00001030
O		1.36854485		3.48787080		4.58099965		-0.00002682		-0.00012407		 0.00001030
O		0.11693010		2.92323884		2.69362776		 0.00003395		-0.00001333		 0.00024138
O		0.20518995		5.12976070		3.41437185		-0.00003395		 0.00001333		-0.00024138
O		0.20518995		5.12976070		5.74762769		-0.00003057		 0.00000773		 0.00024771
O		0.11693010		2.92323884		0.36037192		 0.00003057		-0.00000773		-0.00024771
O		1.50898983		6.99897954		2.69362776		 0.00003395		-0.00001332		 0.00024138
O		1.27512989		1.15250088		3.41437185		-0.00003395		 0.00001332		-0.00024138
O		1.27512989		1.15250088		5.74762769		-0.00003057		 0.00000763		 0.00024775
O		1.50898983		6.99897954		0.36037192		 0.00003057		-0.00000763		-0.00024775
Si		0.00000000		0.00000000		0.00000000		0.00000000		0.00000000		0.00000000
Si		0.00000000		0.00000000		3.05399968		0.00000000		0.00000000		0.00000000
Si		1.39205998		4.07573972		0.00000000		0.00000000		0.00000000		0.00000000
Si		1.39205998		4.07573972		3.05399968		0.00000000		0.00000000		0.00000000
Mg		0.08149601		2.03740885		4.58099965		 0.00005309		-0.00036390		-0.00000914
Mg		0.24062403		6.01559069		1.52699997		-0.00005309		 0.00036390		 0.00000914
Mg		1.47355599		6.11314955		4.58099965		 0.00005315		-0.00036391		-0.00000915
Mg		1.31056397		2.03833087		1.52699997		-0.00005315		 0.00036391		 0.00000915
