# total energy = -12329.5684251 eV

CRYSTAL
PRIMVEC
		2.46200034		0.29543945		0.00000000
		0.96635938		8.05300059		0.00000000
		0.00000000		0.00000000		6.10800007
PRIMECORD
   20 1
O		0.07054393		0.58786908		1.52700002		-0.00004332		 0.00066249		 0.00004957
O		0.89581594		7.46513077		4.58099980		 0.00004332		-0.00066249		-0.00004957
O		1.78472404		4.76208884		1.52700002		-0.00004288		 0.00066182		 0.00004962
O		1.64363592		3.58635094		4.58099980		 0.00004288		-0.00066182		-0.00004962
O		0.35078899		2.92323897		2.69362789		-0.00033193		 0.00040995		 0.00002312
O		0.61557088		5.12976087		3.41437193		 0.00033193		-0.00040995		-0.00002312
O		0.61557088		5.12976087		5.74762792		 0.00022865		-0.00027611		-0.00001760
O		0.35078899		2.92323897		0.36037190		-0.00022865		 0.00027611		 0.00001760
O		2.06496885		7.09745974		2.69362789		-0.00033140		 0.00040921		 0.00002271
O		1.36339086		1.25098104		3.41437193		 0.00033140		-0.00040921		-0.00002271
O		1.36339086		1.25098104		5.74762792		 0.00022821		-0.00027554		-0.00001792
O		2.06496885		7.09745974		0.36037190		-0.00022821		 0.00027554		 0.00001792
Si		0.00000000		0.00000000		0.00000000		0.00000000		0.00000000		0.00000000
Si		0.00000000		0.00000000		3.05400003		0.00000000		0.00000000		0.00000000
Si		1.71417986		4.17421977		0.00000000		0.00000000		0.00000000		0.00000000
Si		1.71417986		4.17421977		3.05400003		0.00000000		0.00000000		0.00000000
Mg		0.24448907		2.03740888		4.58099980		 0.00011630		 0.00008758		 0.00003694
Mg		0.72187105		6.01559096		1.52700002		-0.00011630		-0.00008758		-0.00003694
Mg		1.95866892		6.21162989		4.58099980		 0.00011543		 0.00008873		 0.00003698
Mg		1.46969104		2.13681089		1.52700002		-0.00011543		-0.00008873		-0.00003698
