# total energy = -24716.4562169 eV

CRYSTAL
PRIMVEC
		9.68100003		0.00000000		-0.38723961
		0.00000000		8.73900247		0.00000000
		1.41661025		0.00000000		4.88056781
PRIMECORD
   40 1
Si		2.31774749		3.58298956		0.89967424		-0.00049415		 0.00047134		 0.00012640
Si		8.77985892		5.15601000		3.59365589		 0.00049415		-0.00047134		-0.00012640
Si		3.23105572		7.95248982		1.34699083		 0.00049415		 0.00047134		-0.00012640
Si		7.86655069		0.78650974		3.14633930		-0.00049415		-0.00047134		 0.00012640
Si		8.07155574		3.58298956		1.15337102		 0.00026199		 0.00003253		-0.00010986
Si		3.02605067		5.15601000		3.33995911		-0.00026199		-0.00003253		 0.00010986
Si		7.15824750		7.95248982		0.70605443		-0.00026199		 0.00003253		 0.00010986
Si		3.93935891		0.78650974		3.78727570		 0.00026199		-0.00003253		-0.00010986
O		4.01406104		3.67038007		0.33316094		 0.00028012		-0.00011154		 0.00010426
O		7.08354537		5.06862046		4.16016920		-0.00028012		 0.00011154		-0.00010426
O		1.53474313		8.03987936		1.91350413		-0.00028012		-0.00011154		-0.00010426
O		9.56286327		0.69912020		2.57982600		 0.00028012		 0.00011154		 0.00010426
O		8.57026141		2.18475013		0.44220966		 0.00005337		 0.00061887		-0.00048260
O		2.52734403		6.55424943		4.05112047		-0.00005337		-0.00061887		 0.00048260
O		6.65954086		6.55424943		1.41721483		-0.00005337		 0.00061887		 0.00048260
O		4.43806555		2.18475013		3.07611530		 0.00005337		-0.00061887		-0.00048260
O		2.79792732		4.28210976		4.57845541		 0.00007715		 0.00056238		-0.00012730
O		8.29968006		4.45688981		-0.08512528		-0.00007715		-0.00056238		 0.00012730
O		4.16748420		8.65161002		2.54878037		-0.00007715		 0.00056238		 0.00012730
O		6.93012318		0.08738954		1.94455073		 0.00007715		-0.00056238		-0.00012730
O		9.00798324		4.28210976		2.35515959		-0.00017438		 0.00034665		 0.00027698
O		2.08962316		4.45688981		2.13817054		 0.00017438		-0.00034665		-0.00027698
O		7.63842540		8.65161002		4.38483561		 0.00017438		 0.00034665		-0.00027698
O		3.45918004		0.08738954		0.10849453		-0.00017438		-0.00034665		 0.00027698
O		1.81904084		2.18475013		1.61083463		 0.00030264		 0.00034069		 0.00025474
O		9.27856557		6.55424943		2.88249453		-0.00030264		-0.00034069		-0.00025474
O		3.72976139		6.55424943		0.63583043		-0.00030264		 0.00034069		-0.00025474
O		7.36784404		2.18475013		3.85749970		 0.00030264		-0.00034069		 0.00025474
O		6.37524315		3.67038007		1.71988432		-0.00035762		-0.00064360		-0.00003847
O		4.72236423		5.06862046		2.77344581		 0.00035762		 0.00064360		 0.00003847
O		8.85456009		8.03987936		0.13954113		 0.00035762		-0.00064360		 0.00003847
O		2.24304632		0.69912020		4.35378900		-0.00035762		 0.00064360		-0.00003847
Mg		0.35415159		0.79524898		1.22014292		 0.00009597		 0.00058033		 0.00021147
Mg		1.06245478		7.94375058		3.66042779		-0.00009597		-0.00058033		-0.00021147
Mg		5.19465161		5.16474925		1.02652311		-0.00009597		 0.00058033		-0.00021147
Mg		5.90295480		3.57425128		3.46680799		 0.00009597		-0.00058033		 0.00021147
Mg		0.28332108		6.02991025		0.97611356		 0.00005494		-0.00034449		-0.00034234
Mg		1.13328626		2.70909028		3.90445618		-0.00005494		 0.00034449		 0.00034234
Mg		5.26548212		1.66040998		1.27055054		-0.00005494		-0.00034449		 0.00034234
Mg		5.83212525		7.07858958		3.22277863		 0.00005494		 0.00034449		-0.00034234
