# total energy = -24711.8571319 eV

CRYSTAL
PRIMVEC
		9.68100360		0.00000000		-1.54896489
		0.00000000		8.73900283		0.00000000
		0.82318448		0.00000000		4.68683671
PRIMECORD
   40 1
Si		2.19847110		3.58299028		0.61677315		 0.00066063		-0.00051104		-0.00010143
Si		8.30571796		5.15600961		2.52110651		-0.00066063		 0.00051104		 0.00010143
Si		3.05362392		7.95248973		0.95216668		-0.00066063		-0.00051104		 0.00010143
Si		7.45056514		0.78651016		2.18571396		 0.00066063		 0.00051104		-0.00010143
Si		7.89412376		3.58299028		0.17768718		-0.00077041		-0.00022989		 0.00001794
Si		2.61006628		5.15600961		2.96019445		 0.00077041		 0.00022989		-0.00001794
Si		7.03897094		7.95248973		-0.15770733		 0.00077041		-0.00022989		-0.00001794
Si		3.46521910		0.78651016		3.29558700		-0.00077041		 0.00022989		 0.00001794
O		3.95471891		3.67038040		-0.15090032		 0.00066958		 0.00024555		-0.00001715
O		6.54947113		5.06862144		3.28877999		-0.00066958		-0.00024555		 0.00001715
O		1.29737611		8.03987986		1.71984016		-0.00066958		 0.00024555		 0.00001715
O		9.20681295		0.69912003		1.41804147		 0.00066958		-0.00024555		-0.00001715
O		8.47590890		2.18475022		-0.58999610		 0.00049006		 0.00056134		 0.00038319
O		2.02828016		6.55424967		3.72787675		-0.00049006		-0.00056134		-0.00038319
O		6.45718580		6.55424967		0.60997594		-0.00049006		 0.00056134		-0.00038319
O		4.04700424		2.18475022		2.52790372		 0.00049006		-0.00056134		 0.00038319
O		2.23417972		4.28211031		4.22015504		-0.00059614		-0.00031828		-0.00013252
O		8.27000935		4.45688958		-1.08227440		 0.00059614		 0.00031828		 0.00013252
O		3.84110371		8.65160976		2.03562640		 0.00059614		-0.00031828		 0.00013252
O		6.66308536		0.08739013		1.10225424		-0.00059614		 0.00031828		-0.00013252
O		8.68160355		4.28211031		1.26114592		 0.00066873		 0.00005728		 0.00006217
O		1.82258454		4.45688958		1.87673375		-0.00066873		-0.00005728		-0.00006217
O		7.07467956		8.65160976		3.44567456		-0.00066873		 0.00005728		-0.00006217
O		3.42950852		0.08739013		-0.30779392		 0.00066873		-0.00005728		 0.00006217
O		1.61668596		2.18475022		1.38445643		-0.00057962		-0.00001397		-0.00052682
O		8.88750408		6.55424967		1.75342520		 0.00057962		 0.00001397		 0.00052682
O		3.63540906		6.55424967		0.18448438		 0.00057962		-0.00001397		 0.00052682
O		6.86878001		2.18475022		2.95339626		-0.00057962		 0.00001397		-0.00052682
O		6.13787595		3.67038040		0.94535967		-0.00089831		-0.00052780		 0.00003264
O		4.36631409		5.06862144		2.19252097		 0.00089831		 0.00052780		-0.00003264
O		8.79521777		8.03987986		-0.92537983		 0.00089831		-0.00052780		-0.00003264
O		1.70897031		0.69912003		4.06326145		-0.00089831		 0.00052780		 0.00003264
Mg		0.20579661		0.79524858		1.17170967		 0.00018719		-0.00052655		-0.00028975
Mg		0.61739179		7.94375131		3.51513097		-0.00018719		 0.00052655		 0.00028975
Mg		5.04629743		5.16474901		0.39723016		-0.00018719		-0.00052655		 0.00028975
Mg		5.45789163		3.57425087		2.74065146		 0.00018719		 0.00052655		-0.00028975
Mg		0.16463788		6.02990989		0.93736832		-0.00019767		-0.00008901		 0.00045419
Mg		0.65855249		2.70908999		3.74947329		 0.00019767		 0.00008901		-0.00045419
Mg		5.08745715		1.66041044		0.63157151		 0.00019767		-0.00008901		-0.00045419
Mg		5.41673192		7.07859043		2.50630816		-0.00019767		 0.00008901		 0.00045419
