# total energy = -24716.0230519 eV

CRYSTAL
PRIMVEC
		9.68099686		0.00000000		-0.77447781
		0.00000000		8.73899798		0.00000000
		1.21879857		0.00000000		4.81599038
PRIMECORD
   40 1
Si		2.27798936		3.58299005		0.80537437		 0.00044772		-0.00046814		-0.00023448
Si		8.62181190		5.15600988		3.23614014		-0.00044772		 0.00046814		 0.00023448
Si		3.17191224		7.95249001		1.21538289		-0.00044772		-0.00046814		 0.00023448
Si		7.72788902		0.78650992		2.82613065		 0.00044772		 0.00046814		-0.00023448
Si		8.01241164		3.58299005		0.82814301		-0.00051515		-0.00016950		 0.00043315
Si		2.88738865		5.15600988		3.21337053		 0.00051515		 0.00016950		-0.00043315
Si		7.11848876		7.95249001		0.41813352		 0.00051515		-0.00016950		-0.00043315
Si		3.78131153		0.78650992		3.62338002		-0.00051515		 0.00016950		 0.00043315
O		3.99427957		3.67037993		0.17180694		 0.00043644		-0.00050630		-0.00016470
O		6.90552072		5.06862097		3.86970563		-0.00043644		 0.00050630		 0.00016470
O		1.45562009		8.03987989		1.84895031		-0.00043644		-0.00050630		 0.00016470
O		9.44417923		0.69912003		2.19256420		 0.00043644		 0.00050630		-0.00016470
O		8.53881084		2.18474998		0.09814099		 0.00054363		 0.00031182		-0.00059519
O		2.36098945		6.55424994		3.94337255		-0.00054363		-0.00031182		 0.00059519
O		6.59208859		6.55424994		1.14813555		-0.00054363		 0.00031182		 0.00059519
O		4.30771170		2.18474998		2.89337799		 0.00054363		-0.00031182		-0.00059519
O		2.61001109		4.28211008		4.45902161		-0.00039671		-0.00036584		 0.00029328
O		8.28978920		4.45688985		-0.41750807		 0.00039671		 0.00036584		-0.00029328
O		4.05869103		8.65161004		2.37772893		 0.00039671		-0.00036584		-0.00029328
O		6.84110926		0.08738988		1.66378461		-0.00039671		 0.00036584		 0.00029328
O		8.89919043		4.28211008		1.99048906		 0.00019807		-0.00089006		-0.00030363
O		2.00061083		4.45688985		2.05102448		-0.00019807		 0.00089006		 0.00030363
O		7.45051049		8.65161004		4.07178174		-0.00019807		-0.00089006		 0.00030363
O		3.44928980		0.08738988		-0.03026820		 0.00019807		 0.00089006		-0.00030363
O		1.75158919		2.18474998		1.53537639		-0.00042184		 0.00009011		-0.00017892
O		9.14821207		6.55424994		2.50613812		 0.00042184		-0.00009011		 0.00017892
O		3.69831047		6.55424994		0.48538086		 0.00042184		 0.00009011		 0.00017892
O		7.20148982		2.18474998		3.55613171		-0.00042184		-0.00009011		-0.00017892
O		6.29612046		3.67037993		1.46170947		 0.00017671		-0.00054106		 0.00049671
O		4.60368080		5.06862097		2.57980407		-0.00017671		 0.00054106		-0.00049671
O		8.83477994		8.03987989		-0.21543293		-0.00017671		-0.00054106		-0.00049671
O		2.06502132		0.69912003		4.25694550		 0.00017671		 0.00054106		 0.00049671
Mg		0.30470013		0.79524871		1.20399759		 0.00008290		-0.00016008		 0.00016014
Mg		0.91410136		7.94375025		3.61199472		-0.00008290		 0.00016008		-0.00016014
Mg		5.14519953		5.16474867		0.81675772		-0.00008290		-0.00016008		-0.00016014
Mg		5.75460076		3.57425125		3.22475485		 0.00008290		 0.00016008		 0.00016014
Mg		0.24375971		6.02990968		0.96319905		 0.00048818		 0.00001058		-0.00060570
Mg		0.97504080		2.70909025		3.85279521		-0.00048818		-0.00001058		 0.00060570
Mg		5.20613994		1.66040971		1.05755821		-0.00048818		 0.00001058		 0.00060570
Mg		5.69366035		7.07858924		2.98395630		 0.00048818		-0.00001058		-0.00060570
