# total energy = -18377.0294704 eV

CRYSTAL
PRIMVEC
		4.81500175		0.00000000		0.77040243
		0.00000000		11.07999810		0.00000000
		1.01919807		0.00000000		6.37000135
PRIMECORD
   28 1
Mg		0.00000000		0.00000000		0.00000000		0.00000000		0.00000000		0.00000000
Mg		2.40749990		5.54000002		0.38520024		0.00000000		-0.00000000		0.00000000
Mg		0.50960001		0.00000000		3.18500019		0.00000000		-0.00000000		0.00000000
Mg		2.91709991		5.54000002		3.57019994		0.00000000		0.00000000		0.00000000
Ca		4.98794501		2.84755982		2.34980274		 0.00039190		-0.00057645		 0.00011075
Ca		0.84625482		8.23243974		4.79059714		-0.00039190		 0.00057645		-0.00011075
Ca		3.09004512		2.69244021		5.14960317		 0.00039190		 0.00057645		 0.00011075
Ca		2.74415519		8.38755984		1.99079719		-0.00039190		-0.00057645		-0.00011075
Si		2.19524487		0.95288020		1.90297118		 0.00067855		-0.00027047		-0.00024733
Si		3.63895496		10.12711985		5.23742918		-0.00067855		 0.00027047		 0.00024733
Si		5.11234478		4.58711983		5.47317112		 0.00067855		 0.00027047		-0.00024733
Si		0.72185504		6.49287973		1.66722875		-0.00067855		-0.00027047		 0.00024733
O		3.93346001		0.74236013		2.18108621		 0.00009497		 0.00035051		 0.00031843
O		1.90073981		10.33763992		4.95931415		-0.00009497		-0.00035051		-0.00031843
O		2.03556012		4.79763989		4.98088616		 0.00009497		-0.00035051		 0.00031843
O		3.79864019		6.28236015		2.15951420		-0.00009497		 0.00035051		-0.00031843
O		3.79864019		5.14111997		2.15951420		-0.00018825		 0.00000430		 0.00024627
O		2.03556012		5.93888007		4.98088616		 0.00018825		-0.00000430		-0.00024627
O		1.90073981		0.39888005		4.95931415		-0.00018825		-0.00000430		 0.00024627
O		3.93346001		10.68112000		2.18108621		 0.00018825		 0.00000430		-0.00024627
O		1.23432619		1.69523984		0.38369982		 0.00043444		 0.00015826		 0.00013158
O		4.59987413		9.38475972		6.75670005		-0.00043444		-0.00015826		-0.00013158
O		4.59987413		3.84476018		6.75670005		-0.00020005		-0.00023964		-0.00025174
O		1.23432619		7.23523986		0.38369982		 0.00020005		 0.00023964		 0.00025174
O		4.15142610		9.38475972		3.95389975		 0.00020005		-0.00023964		 0.00025174
O		1.68277421		1.69523984		3.18650012		-0.00020005		 0.00023964		-0.00025174
O		1.68277421		7.23523986		3.18650012		-0.00043444		 0.00015826		-0.00013158
O		4.15142610		3.84476018		3.95389975		 0.00043444		-0.00015826		 0.00013158
