# total energy = -18383.3462119 eV

CRYSTAL
PRIMVEC
		4.81500060		0.00000000		0.57779891
		0.00000000		11.08000029		0.00000000
		0.76439966		0.00000000		6.37000201
PRIMECORD
   28 1
Mg		0.00000000		0.00000000		0.00000000		0.00000000		0.00000000		0.00000000
Mg		2.40749982		5.53999966		0.28889994		0.00000000		0.00000000		0.00000000
Mg		0.38219983		0.00000000		3.18500003		0.00000000		0.00000000		0.00000000
Mg		2.78970013		5.53999966		3.47389997		0.00000000		0.00000000		0.00000000
Ca		4.92424483		2.84756004		2.16047714		 0.00013894		 0.00025129		 0.00039309
Ca		0.65515495		8.23243976		4.78732280		-0.00013894		-0.00025129		-0.00039309
Ca		2.89894484		2.69244010		5.05657675		 0.00013894		-0.00025129		 0.00039309
Ca		2.68045494		8.38755970		1.89122271		-0.00013894		 0.00025129		-0.00039309
Si		2.13154477		0.95288009		1.82535281		-0.00046970		 0.00019749		 0.00022698
Si		3.44785501		10.12711971		5.12244665		 0.00046970		-0.00019749		-0.00022698
Si		4.92124490		4.58712005		5.29925278		-0.00046970		-0.00019749		 0.00022698
Si		0.65815488		6.49287975		1.64854717		 0.00046970		 0.00019749		-0.00022698
O		3.86976000		0.74235994		2.03393897		-0.00002355		-0.00040516		 0.00011653
O		1.70963978		10.33763938		4.91386098		 0.00002355		 0.00040516		-0.00011653
O		1.84446001		4.79763972		4.93003858		-0.00002355		 0.00040516		 0.00011653
O		3.73493977		6.28235960		2.01776089		 0.00002355		-0.00040516		-0.00011653
O		3.73493977		5.14111982		2.01776089		-0.00032311		 0.00016170		-0.00006835
O		1.84446001		5.93887998		4.93003858		 0.00032311		-0.00016170		 0.00006835
O		1.70963978		0.39887984		4.91386098		-0.00032311		-0.00016170		-0.00006835
O		3.86976000		10.68111948		2.03393897		 0.00032311		 0.00016170		 0.00006835
O		1.22668195		1.69524003		0.33555013		 0.00037281		-0.00001381		-0.00032785
O		4.35271783		9.38475977		6.61224982		-0.00037281		 0.00001381		 0.00032785
O		4.35271783		3.84475963		6.61224982		-0.00015212		 0.00040705		-0.00014798
O		1.22668195		7.23523969		0.33555013		 0.00015212		-0.00040705		 0.00014798
O		4.01638208		9.38475977		3.80945010		 0.00015212		 0.00040705		 0.00014798
O		1.56301770		1.69524003		3.13834985		-0.00015212		-0.00040705		-0.00014798
O		1.56301770		7.23523969		3.13834985		-0.00037281		-0.00001381		 0.00032785
O		4.01638208		3.84475963		3.80945010		 0.00037281		 0.00001381		-0.00032785
