# total energy = -18382.40331 eV

CRYSTAL
PRIMVEC
		4.81500031		0.00000000		-0.19259982
		0.00000000		11.08000239		0.00000000
		-0.25480154		0.00000000		6.37000002
PRIMECORD
   28 1
Mg		0.00000000		0.00000000		0.00000000		-0.00000000		0.00000000		-0.00000000
Mg		2.40750015		5.54000023		-0.09629991		0.00000000		0.00000000		0.00000000
Mg		-0.12739981		0.00000000		3.18500001		-0.00000000		0.00000000		-0.00000000
Mg		2.28009986		5.54000023		3.08870010		0.00000000		0.00000000		0.00000000
Ca		4.66944500		2.84756000		1.40317411		 0.00918722		 0.02192831		-0.01806434
Ca		-0.10924479		8.23243998		4.77422609		-0.00918722		-0.02192831		 0.01806434
Ca		2.13454504		2.69244023		4.68447403		 0.00918722		-0.02192831		-0.01806434
Ca		2.42565517		8.38756023		1.49292617		-0.00918722		 0.02192831		 0.01806434
Si		1.87674521		0.95287999		1.51488181		 0.00580814		 0.07183877		 0.02209389
Si		2.68345501		10.12712047		4.66251790		-0.00580814		-0.07183877		-0.02209389
Si		4.15684507		4.58712024		4.60358191		 0.00580814		-0.07183877		 0.02209389
Si		0.40335514		6.49288023		1.57381780		-0.00580814		 0.07183877		-0.02209389
O		3.61496002		0.74235983		1.44535399		-0.04688390		-0.04713884		 0.00502330
O		0.94524019		10.33764015		4.73204621		 0.04688390		 0.04713884		-0.00502330
O		1.08006006		4.79763992		4.72665391		-0.04688390		 0.04713884		 0.00502330
O		3.48014015		6.28236006		1.45074580		 0.04688390		-0.04713884		-0.00502330
O		3.48014015		5.14112036		1.45074580		-0.03388176		-0.05398367		 0.02394333
O		1.08006006		5.93888011		4.72665391		 0.03388176		 0.05398367		-0.02394333
O		0.94524019		0.39887987		4.73204621		-0.03388176		 0.05398367		 0.02394333
O		3.61496002		10.68112011		1.44535399		 0.03388176		-0.05398367		-0.02394333
O		1.19610618		1.69523983		0.14295024		 0.02419954		-0.00896447		-0.04810290
O		3.36409404		9.38476016		6.03444996		-0.02419954		 0.00896447		 0.04810290
O		3.36409404		3.84475992		6.03444996		 0.00698347		 0.01877520		-0.02228629
O		1.19610618		7.23524006		0.14295024		-0.00698347		-0.01877520		 0.02228629
O		3.47620604		9.38476016		3.23164986		-0.00698347		 0.01877520		 0.02228629
O		1.08399417		1.69523983		2.94574986		 0.00698347		-0.01877520		-0.02228629
O		1.08399417		7.23524006		2.94574986		-0.02419954		-0.00896447		 0.04810290
O		3.47620604		3.84475992		3.23164986		 0.02419954		 0.00896447		-0.04810290
