# total energy = -18384.5762835 eV

CRYSTAL
PRIMVEC
		4.81500031		0.00000000		0.19259982
		0.00000000		11.08000239		0.00000000
		0.25480154		0.00000000		6.37000002
PRIMECORD
   28 1
Mg		0.00000000		0.00000000		0.00000000		0.00000000		0.00000000		0.00000000
Mg		2.40750015		5.54000023		0.09629991		0.00000000		0.00000000		0.00000000
Mg		0.12739981		0.00000000		3.18500001		0.00000000		0.00000000		0.00000000
Mg		2.53489996		5.54000023		3.28129992		0.00000000		0.00000000		-0.00000000
Ca		4.79684529		2.84756000		1.78182590		-0.00331589		 0.00776543		 0.02170419
Ca		0.27295512		8.23243998		4.78077394		 0.00331589		-0.00776543		-0.02170419
Ca		2.51674494		2.69244023		4.87052600		-0.00331589		-0.00776543		 0.02170419
Ca		2.55305498		8.38756023		1.69207384		 0.00331589		 0.00776543		-0.02170419
Si		2.00414501		0.95287999		1.67011819		 0.01488877		-0.02281449		-0.01858776
Si		3.06565491		10.12712047		4.89248212		-0.01488877		 0.02281449		 0.01858776
Si		4.53904498		4.58712024		4.95141811		 0.01488877		 0.02281449		-0.01858776
Si		0.53075495		6.49288023		1.61118221		-0.01488877		-0.02281449		 0.01858776
O		3.74236031		0.74235983		1.73964602		-0.02250618		 0.01518240		 0.00318174
O		1.32744009		10.33764015		4.82295430		 0.02250618		-0.01518240		-0.00318174
O		1.46225997		4.79763992		4.82834611		-0.02250618		-0.01518240		 0.00318174
O		3.60753996		6.28236006		1.73425420		 0.02250618		 0.01518240		-0.00318174
O		3.60753996		5.14112036		1.73425420		 0.00746763		-0.00596041		 0.01692694
O		1.46225997		5.93888011		4.82834611		-0.00746763		 0.00596041		-0.01692694
O		1.32744009		0.39887987		4.82295430		 0.00746763		 0.00596041		 0.01692694
O		3.74236031		10.68112011		1.73964602		-0.00746763		-0.00596041		-0.01692694
O		1.21139398		1.69523983		0.23925015		 0.04019277		 0.02690767		 0.00365961
O		3.85840594		9.38476016		6.32335017		-0.04019277		-0.02690767		-0.00365961
O		3.85840594		3.84475992		6.32335017		-0.02149510		-0.01158101		-0.00244041
O		1.21139398		7.23524006		0.23925015		 0.02149510		 0.01158101		 0.00244041
O		3.74629394		9.38476016		3.52055007		 0.02149510		-0.01158101		 0.00244041
O		1.32350598		1.69523983		3.04205025		-0.02149510		 0.01158101		-0.00244041
O		1.32350598		7.23524006		3.04205025		-0.04019277		 0.02690767		-0.00365961
O		3.74629394		3.84475992		3.52055007		 0.04019277		-0.02690767		 0.00365961
