# total energy = -18274.3778856 eV	

CRYSTAL	
PRIMVEC	
		5.33600010		0.00000000		0.00000000	
		-2.66800005		4.62110949		0.00000000	
		0.00000000		0.00000000		14.61400229	
PRIMCOORD
   28 1	
Mg		1.77155203		0.00000000		3.19754310		 0.00750434		-0.00000236		 0.00560727	
Mg		-0.88577602		1.53420888		3.19754310		-0.00375452		 0.00650142		 0.00560772	
Mg		1.78222403		3.08690220		3.19754310		-0.00375037		-0.00649915		 0.00560752	
Mg		3.56444807		0.00000000		10.50454425		-0.00747750		-0.00000109		 0.00563315	
Mg		-1.78222403		3.08690220		10.50454425		 0.00373741		-0.00651683		 0.00563254	
Mg		0.88577602		1.53420888		10.50454425		 0.00373875		 0.00651813		 0.00563274	
Si		0.00000000		3.08074126		0.42672900		 0.00000437		-0.00000474		 0.01275968	
Si		2.66800005		1.54036983		7.73372908		-0.00000234		-0.00000252		 0.01268970	
Si		0.00000000		3.08074126		7.73372908		 0.00000496		 0.00000149		 0.01269347	
Si		2.66800005		1.54037090		0.42672900		-0.00000089		 0.00000293		 0.01276016	
O		0.00000000		3.08074126		2.05472822		 0.00000013		 0.00000021		-0.01892591	
O		2.66800005		1.54036983		9.36172830		-0.00000032		-0.00000234		-0.01886277	
O		0.00000000		3.08074126		9.36172830		 0.00000073		 0.00000270		-0.01886674	
O		2.66800005		1.54037090		2.05472822		-0.00000033		-0.00000046		-0.01892626	
O		2.63598405		0.00000000		14.48247416		 0.00080531		 0.00000118		-0.00118457	
O		-1.31799202		2.28282889		14.48247416		-0.00040370		 0.00069721		-0.00118233	
O		1.35000803		2.33828327		14.48247416		-0.00040484		-0.00069661		-0.00118077	
O		2.70001605		0.00000000		7.17547408		-0.00080491		 0.00000094		-0.00117913	
O		-1.35000803		2.33828327		7.17547408		 0.00040169		-0.00069809		-0.00118022	
O		1.31799202		2.28282889		7.17547408		 0.00040018		 0.00069825		-0.00117870	
O		3.55733305		0.00000000		4.17814304		 0.00658374		 0.00000011		-0.01102693	
O		-1.77866706		3.08074126		4.17814304		-0.00329116		 0.00570110		-0.01102935	
O		0.88933299		1.54036983		4.17814304		-0.00329218		-0.00570246		-0.01102578	
O		1.77866706		0.00000000		11.48514312		-0.00659215		 0.00000029		-0.01104788	
O		-0.88933299		1.54036983		11.48514312		 0.00328729		-0.00569446		-0.01105536	
O		1.77866706		3.08074126		11.48514312		 0.00328814		 0.00569672		-0.01105837	
O		0.00000000		0.00000000		2.10441599		 0.00000159		 0.00000112		 0.03214478	
O		0.00000000		0.00000000		9.41141607		 0.00001660		-0.00000270		 0.03214233	
