# total energy = -10311.4369274 eV	

CRYSTAL	
PRIMVEC	
		3.51000042		0.00000000		0.42119920	
		0.00000000		3.51000042		0.00000000	
		1.25399959		0.00000000		10.45000009	
PRIMCOORD
   14 1	
Si		0.00000000		0.00000000		0.00000000		0.00000000		0.00000000		0.00000000	
Si		2.38200000		1.75499985		5.43559965		0.00000000		0.00000000		0.00000000	
Mg		0.46899592		0.00000000		3.90829977		 0.00028107		0.00000000		-0.00003804	
Mg		0.78500402		0.00000000		6.54169961		-0.00028107		0.00000000		 0.00003804	
Mg		2.85099592		1.75499985		9.34389942		-0.00065269		0.00000000		-0.00013303	
Mg		1.91300409		1.75499985		1.52729987		 0.00065269		0.00000000		 0.00013303	
O		0.00000000		1.75499985		0.00000000		0.00000000		0.00000000		0.00000000	
O		1.75499985		0.00000000		0.21059995		0.00000000		0.00000000		0.00000000	
O		2.38200000		0.00000000		5.43559965		0.00000000		0.00000000		0.00000000	
O		0.62700015		1.75499985		5.22499969		0.00000000		0.00000000		0.00000000	
O		0.20653414		0.00000000		1.72111479		-0.00037787		0.00000000		 0.00051573	
O		1.04746580		0.00000000		8.72888460		 0.00037787		0.00000000		-0.00051573	
O		2.58853379		1.75499985		7.15671479		-0.00038155		0.00000000		 0.00045722	
O		2.17546586		1.75499985		3.71448486		 0.00038155		0.00000000		-0.00045722	
