# total energy = -10312.9397645 eV	

CRYSTAL	
PRIMVEC	
		3.50999882		0.00000000		0.28079920	
		0.00000000		3.50999882		0.00000000	
		0.83599956		0.00000000		10.44999799	
PRIMCOORD
   14 1	
Si		0.00000000		0.00000000		0.00000000		0.00000000		0.00000000		0.00000000	
Si		2.17299989		1.75499976		5.36539965		0.00000000		0.00000000		0.00000000	
Mg		0.31266407		0.00000000		3.90829987		 0.00007459		0.00000000		-0.00003654	
Mg		0.52333584		0.00000000		6.54169953		-0.00007459		0.00000000		 0.00003654	
Mg		2.48566396		1.75499976		9.27369952		 0.00040733		0.00000000		-0.00001998	
Mg		1.86033582		1.75499976		1.45709978		-0.00040733		0.00000000		 0.00001998	
O		0.00000000		1.75499976		0.00000000		0.00000000		0.00000000		0.00000000	
O		1.75499976		0.00000000		0.14039995		0.00000000		0.00000000		0.00000000	
O		2.17299989		0.00000000		5.36539965		0.00000000		0.00000000		0.00000000	
O		0.41800013		1.75499976		5.22499970		0.00000000		0.00000000		0.00000000	
O		0.13768897		0.00000000		1.72111477		 0.00012085		0.00000000		-0.00032713	
O		0.69831094		0.00000000		8.72888463		-0.00012085		0.00000000		 0.00032713	
O		2.31068886		1.75499976		7.08651442		-0.00000996		0.00000000		-0.00032567	
O		2.03531092		1.75499976		3.64428488		 0.00000996		0.00000000		 0.00032567	
