# total energy = -10311.4369277 eV	

CRYSTAL	
PRIMVEC	
		3.51000042		0.00000000		-0.42119920	
		0.00000000		3.51000042		0.00000000	
		-1.25399959		0.00000000		10.45000009	
PRIMCOORD
   14 1	
Si		0.00000000		0.00000000		0.00000000		0.00000000		0.00000000		0.00000000	
Si		1.12800006		1.75499985		5.01439974		0.00000000		0.00000000		0.00000000	
Mg		-0.46899592		0.00000000		3.90829977		-0.00028128		0.00000000		-0.00003788	
Mg		-0.78500402		0.00000000		6.54169961		 0.00028128		0.00000000		 0.00003788	
Mg		0.65900415		1.75499985		8.92269951		 0.00065224		0.00000000		-0.00013271	
Mg		1.59699598		1.75499985		1.10609997		-0.00065224		0.00000000		 0.00013271	
O		0.00000000		1.75499985		0.00000000		0.00000000		0.00000000		0.00000000	
O		1.75499985		0.00000000		-0.21059995		0.00000000		0.00000000		0.00000000	
O		1.12800006		0.00000000		5.01439974		0.00000000		0.00000000		0.00000000	
O		-0.62700015		1.75499985		5.22499969		0.00000000		0.00000000		0.00000000	
O		-0.20653414		0.00000000		1.72111479		 0.00037795		0.00000000		 0.00051491	
O		-1.04746580		0.00000000		8.72888460		-0.00037795		0.00000000		-0.00051491	
O		0.92146592		1.75499985		6.73551488		 0.00038051		0.00000000		 0.00045675	
O		1.33453385		1.75499985		3.29328495		-0.00038051		0.00000000		-0.00045675	
