# total energy = -18534.5994697 eV

CRYSTAL
PRIMVEC
		4.68600010		0.00000000		0.00000000
		-2.34300005		4.05819324		0.00000000
		0.00000000		0.00000000		13.29100050
PRIMECORD
   30 1
O		1.42548123		0.13229703		3.21110594		-0.00029384		 0.00009097		 0.00059281
O		0.91751882		3.92589809		10.07989410		 0.00029384		-0.00009097		-0.00059281
O		3.85868725		1.16835385		3.21110594		 0.00006813		-0.00029996		 0.00059281
O		-1.51568720		2.88984127		10.07989410		-0.00006813		 0.00029996		-0.00059281
O		1.74483214		2.75754283		3.21110594		 0.00022571		 0.00020898		 0.00059281
O		0.59816791		1.30065088		10.07989410		-0.00022571		-0.00020898		-0.00059281
O		3.76848128		1.48502905		7.64143928		-0.00028714		 0.00008169		 0.00062904
O		0.91751882		1.22043405		1.21922787		 0.00028388		-0.00006476		-0.00063616
O		1.51568720		2.52108586		7.64143928		 0.00007282		-0.00028952		 0.00062904
O		3.17031290		0.18437723		1.21922787		-0.00008586		 0.00027822		-0.00063616
O		1.74483214		0.05208021		7.64143928		 0.00021432		 0.00020782		 0.00062904
O		2.94116797		2.65338289		1.21922787		-0.00019802		-0.00021347		-0.00063616
O		1.42548123		2.83776013		12.07177310		-0.00028388		 0.00006476		 0.00063616
O		-1.42548123		2.57316607		5.64956122		 0.00028714		-0.00008169		-0.00062904
O		-0.82731285		3.87381788		12.07177310		 0.00008586		-0.00027822		 0.00063616
O		0.82731285		1.53710925		5.64956122		-0.00007282		 0.00028952		-0.00062904
O		-0.59816791		1.40481222		12.07177310		 0.00019802		 0.00021347		 0.00063616
O		0.59816791		4.00611491		5.64956122		-0.00021432		-0.00020782		-0.00062904
Mg		0.00000000		0.00000000		4.76615320		0.00000000		-0.00000000		 0.00036506
Mg		0.00000000		0.00000000		8.52484730		0.00000000		-0.00000000		-0.00036506
Mg		2.34300005		1.35273202		9.19648608		0.00000000		0.00000000		 0.00040177
Mg		2.34300005		1.35273202		12.95518112		0.00000000		-0.00000000		-0.00037406
Mg		0.00000000		2.70546310		0.33581892		0.00000000		-0.00000000		 0.00037406
Mg		0.00000000		2.70546310		4.09451396		0.00000000		0.00000000		-0.00040177
Si		0.00000000		0.00000000		2.08668709		0.00000000		0.00000000		 0.00080330
Si		0.00000000		0.00000000		11.20431341		0.00000000		0.00000000		-0.00080330
Si		2.34300005		1.35273202		6.51702137		0.00000000		0.00000000		 0.00080545
Si		2.34300005		1.35273202		2.34364625		0.00000000		0.00000000		-0.00076501
Si		0.00000000		2.70546310		10.94735425		-0.00000000		-0.00000000		 0.00076501
Si		0.00000000		2.70546310		6.77398006		-0.00000000		-0.00000000		-0.00080545
