# total energy = -18390.7638137 eV	

CRYSTAL	
PRIMVEC	
		4.81499975		0.00000000		0.00000000	
		0.00000000		11.07999815		-0.44320147	
		0.00000000		-0.25480016		6.36999910	
PRIMCOORD
   28 1	
Mg		0.00000000		0.00000000		0.00000000		0.00000000		0.00000000		0.00000000	
Mg		2.40749987		5.53999956		-0.22159977		0.00000000		0.00000000		0.00000000	
Mg		0.00000000		-0.12740008		3.18500003		0.00000000		0.00000000		0.00000000	
Mg		2.40749987		5.41259948		2.96339978		0.00000000		0.00000000		0.00000000	
Ca		4.73314475		2.78386000		1.47859783		-0.00167057		-0.00292390		-0.00134464	
Ca		0.08185500		8.04133944		4.44820173		 0.00167057		 0.00292390		 0.00134464	
Ca		2.32564488		2.50133989		4.66980199		-0.00167057		 0.00292390		 0.00134464	
Ca		2.48935487		8.32385955		1.25699806		 0.00167057		-0.00292390		-0.00134464	
Si		1.94044490		0.88917974		1.55438496		-0.00350267		 0.00377100		-0.00034433	
Si		2.87455485		9.93601969		4.37241460		 0.00350267		-0.00377100		 0.00034433	
Si		4.34794477		4.39601966		4.59401485		-0.00350267		-0.00377100		 0.00034433	
Si		0.46705498		6.42917978		1.33278471		 0.00350267		 0.00377100		-0.00034433	
O		3.67865981		0.67865977		1.56280591		-0.00024182		-0.00216007		-0.00238903	
O		1.13633994		10.14653967		4.36399365		 0.00024182		 0.00216007		 0.00238903	
O		1.27115993		4.60653963		4.58559390		-0.00024182		 0.00216007		 0.00238903	
O		3.54383981		6.21865981		1.34120614		 0.00024182		-0.00216007		-0.00238903	
O		3.54383981		5.07741964		1.38685475		-0.00108435		-0.00124215		-0.00083066	
O		1.27115993		5.74777980		4.53994481		 0.00108435		 0.00124215		 0.00083066	
O		1.13633994		0.20777976		4.76154458		-0.00108435		 0.00124215		 0.00083066	
O		3.67865981		10.61741968		1.16525498		 0.00108435		-0.00124215		-0.00083066	
O		1.20374994		1.68759578		0.12328999		-0.00190380		-0.00319328		-0.00278623	
O		3.61124981		9.13760366		5.80350957		 0.00190380		 0.00319328		 0.00278623	
O		3.61124981		3.59760362		6.02510982		-0.00190380		 0.00319328		 0.00278623	
O		1.20374994		7.22759582		-0.09830978		 0.00190380		-0.00319328		-0.00278623	
O		3.61124981		9.24971563		3.00070881		-0.00507700		-0.00168653		 0.00314847	
O		1.20374994		1.57548381		2.92608979		 0.00507700		 0.00168653		-0.00314847	
O		1.20374994		7.11548384		2.70449002		-0.00507700		 0.00168653		-0.00314847	
O		3.61124981		3.70971559		3.22230906		 0.00507700		-0.00168653		 0.00314847	
