# total energy = -8762.04028568 eV	

CRYSTAL	
PRIMVEC	
		3.04799884		0.00000000		-0.24383930	
		-1.52400095		2.63964714		0.12192118	
		-0.98896106		0.00000000		12.36199947	
PRIMCOORD
   11 1	
H		-0.46451500		1.75976384		5.80643145		 0.00003497		-0.00017888		 0.00059135	
H		0.99955398		0.87988177		6.43364837		-0.00003497		 0.00017888		-0.00059135	
Mg		-0.69098604		0.00000000		8.63732907		 0.00019109		-0.00027261		 0.00069170	
Mg		-0.29797410		0.00000000		3.72467070		-0.00019109		 0.00027261		-0.00069170	
Mg		0.63383693		0.87988177		11.00511581		 0.00000650		 0.00021761		-0.00066774	
Mg		-0.09879704		1.75976384		1.23496401		-0.00000650		-0.00021761		 0.00066774	
O		1.32640596		0.87988177		2.34800776		 0.00002036		 0.00044611		 0.00024086	
O		-0.79136607		1.75976384		9.89207206		-0.00002036		-0.00044611		-0.00024086	
O		-0.38529911		1.75976384		4.81623445		 0.00013282		-0.00020300		-0.00082620	
O		0.92033900		0.87988177		7.42384414		-0.00013282		 0.00020300		 0.00082620	
O		0.00000000		0.00000000		0.00000000		0.00000000		0.00000000		0.00000000	
