# total energy = -8761.30388838 eV	

CRYSTAL	
PRIMVEC	
		2.74320010		0.00000000		0.00000000	
		-1.37160005		2.63964704		0.00000000	
		0.00000000		0.00000000		12.36200082	
PRIMCOORD
   11 1	
H		0.00000000		1.75976396		5.80643235		0.00000000		 0.00039030		 0.00056885	
H		1.37160005		0.87988198		6.55556930		0.00000000		-0.00039030		-0.00056885	
Mg		0.00000000		0.00000000		8.63733036		0.00000000		-0.00019825		-0.00006252	
Mg		0.00000000		0.00000000		3.72467101		0.00000000		 0.00019825		 0.00006252	
Mg		1.37160005		0.87988198		11.12703737		0.00000000		-0.00036927		 0.00007634	
Mg		0.00000000		1.75976396		1.23496400		0.00000000		 0.00036927		-0.00007634	
O		1.37160005		0.87988198		2.46992799		0.00000000		-0.00037025		-0.00020484	
O		0.00000000		1.75976396		9.89207338		0.00000000		 0.00037025		 0.00020484	
O		0.00000000		1.75976396		4.81623504		0.00000000		 0.00090570		 0.00002166	
O		1.37160005		0.87988198		7.54576523		0.00000000		-0.00090570		-0.00002166	
O		0.00000000		0.00000000		0.00000000		0.00000000		0.00000000		0.00000000	
