# total energy = -8762.09824448 eV	

CRYSTAL	
PRIMVEC	
		2.97179989		0.00000000		0.00000000	
		-1.48589994		2.63964479		0.00000000	
		0.00000000		0.00000000		12.36199807	
PRIMCOORD
   11 1	
H		0.00000000		1.75976378		5.80643189		0.00000000		-0.00006600		-0.00006958	
H		1.48589994		0.87988189		6.55556886		0.00000000		 0.00006600		 0.00006958	
Mg		0.00000000		0.00000000		8.63732954		0.00000000		-0.00044539		-0.00044134	
Mg		0.00000000		0.00000000		3.72467092		0.00000000		 0.00044539		 0.00044134	
Mg		1.48589994		0.87988189		11.12703662		0.00000000		-0.00010178		 0.00064834	
Mg		0.00000000		1.75976378		1.23496384		0.00000000		 0.00010178		-0.00064834	
O		1.48589994		0.87988189		2.46992797		0.00000000		-0.00040869		-0.00023083	
O		0.00000000		1.75976378		9.89207248		0.00000000		 0.00040869		 0.00023083	
O		0.00000000		1.75976378		4.81623471		0.00000000		 0.00030119		 0.00023880	
O		1.48589994		0.87988189		7.54576485		0.00000000		-0.00030119		-0.00023880	
O		0.00000000		0.00000000		0.00000000		0.00000000		0.00000000		0.00000000	
