# total energy = -8761.69559809 eV	

CRYSTAL	
PRIMVEC	
		3.27660013		0.00000000		0.00000000	
		-1.63830007		2.63964545		0.00000000	
		0.00000000		0.00000000		12.36199958	
PRIMCOORD
   11 1	
H		0.00000000		1.75976396		5.80643230		-0.00000000		-0.00016135		-0.00029088	
H		1.63830007		0.87988214		6.55556925		-0.00000000		 0.00016135		 0.00029088	
Mg		0.00000000		0.00000000		8.63733028		0.00000000		 0.00014747		-0.00056396	
Mg		0.00000000		0.00000000		3.72467127		0.00000000		-0.00014747		 0.00056396	
Mg		1.63830007		0.87988214		11.12703752		0.00000000		 0.00071042		 0.00089179	
Mg		0.00000000		1.75976396		1.23496402		0.00000000		-0.00071042		-0.00089179	
O		1.63830007		0.87988214		2.46992805		0.00000000		-0.00025200		 0.00024786	
O		0.00000000		1.75976396		9.89207350		0.00000000		 0.00025200		-0.00024786	
O		0.00000000		1.75976396		4.81623522		0.00000000		 0.00059892		 0.00030681	
O		1.63830007		0.87988214		7.54576535		0.00000000		-0.00059892		-0.00030681	
O		0.00000000		0.00000000		0.00000000		0.00000000		0.00000000		0.00000000	
