# total energy = -8761.89969808 eV	

CRYSTAL	
PRIMVEC	
		3.20039968		0.00000000		0.00000000	
		-1.60019984		2.63964485		0.00000000	
		0.00000000		0.00000000		12.36199820	
PRIMCOORD
   11 1	
H		0.00000000		1.75976376		5.80643136		0.00000000		-0.00023287		-0.00004541	
H		1.60019984		0.87988204		6.55556844		0.00000000		 0.00023287		 0.00004541	
Mg		0.00000000		0.00000000		8.63732921		0.00000000		 0.00088240		-0.00070460	
Mg		0.00000000		0.00000000		3.72467059		0.00000000		-0.00088240		 0.00070460	
Mg		1.60019984		0.87988204		11.12703598		0.00000000		 0.00054239		 0.00021722	
Mg		0.00000000		1.75976376		1.23496383		0.00000000		-0.00054239		-0.00021722	
O		1.60019984		0.87988204		2.46992765		0.00000000		 0.00060233		 0.00015772	
O		0.00000000		1.75976376		9.89207215		0.00000000		-0.00060233		-0.00015772	
O		0.00000000		1.75976376		4.81623443		-0.00000000		-0.00064876		 0.00010303	
O		1.60019984		0.87988204		7.54576410		-0.00000000		 0.00064876		-0.00010303	
O		0.00000000		0.00000000		0.00000000		0.00000000		0.00000000		0.00000000	
