# total energy = -7658.5284157 eV

CRYSTAL
PRIMVEC
		5.54070013		0.00000000		0.00000000
		-2.77035006		4.79838483		0.00000000
		0.00000000		0.00000000		4.84350275
PRIMECORD
   15 1
Mg		0.00000000		0.00000000		0.00000000		0.00000000		0.00000000		0.00000000
Mg		0.00000000		3.19892488		0.05279401		0.00000000		0.00000000		 0.00065651
Mg		2.77035006		1.59946216		4.79070597		-0.00000000		-0.00000000		-0.00065651
O		0.91310683		1.60554031		1.06557027		 0.00030659		-0.00007058		-0.00008094
O		1.85724213		3.19284729		3.77793026		-0.00030659		 0.00007058		 0.00008094
O		0.92335823		4.78639088		1.06557027		-0.00009216		 0.00030081		-0.00008094
O		1.84699183		0.01199617		3.77793026		 0.00009216		-0.00030081		 0.00008094
O		-1.83646506		3.20484235		1.06557027		-0.00021442		-0.00023022		-0.00008094
O		4.60681512		1.59354414		3.77793026		 0.00021442		 0.00023022		 0.00008094
H		0.78594776		1.67607730		2.04395708		 0.00027088		 0.00003067		-0.00053742
H		1.98440231		3.12231030		2.79954291		-0.00027088		-0.00003067		 0.00053742
H		0.92585099		4.64100013		2.04395708		-0.00016201		 0.00021926		-0.00053742
H		1.84449907		0.15738691		2.79954291		 0.00016201		-0.00021926		 0.00053742
H		-1.71179931		3.27969721		2.04395708		-0.00010889		-0.00024993		-0.00053742
H		4.48214937		1.51868928		2.79954291		 0.00010889		 0.00024993		 0.00053742
