# total energy = -20634.6015051 eV	

CRYSTAL	
PRIMVEC	
		4.74599980		0.00000000		0.00000000	
		0.00000000		10.17999872		1.62879866	
		0.00000000		0.95615760		5.97600159	
PRIMCOORD
   28 1	
Si		2.02227004		1.19494214		1.64694404		-0.00005050		 0.00014071		 0.00004863	
Si		2.72372881		9.94121750		5.95785573		 0.00005050		-0.00014071		-0.00004863	
Si		4.39527089		4.85121767		5.14345593		-0.00005050		-0.00014071		-0.00004863	
Si		0.35072891		6.28494197		2.46134384		 0.00005050		 0.00014071		 0.00004863	
Mg		0.00000000		0.00000000		0.00000000		0.00000000		0.00000000		-0.00000000	
Mg		2.37299990		5.08999984		0.81439980		0.00000000		0.00000000		0.00000000	
Mg		0.00000000		0.47807975		2.98799984		0.00000000		0.00000000		0.00000000	
Mg		2.37299990		5.56807958		3.80239965		0.00000000		0.00000000		0.00000000	
Mg		4.70518373		3.06093590		1.94550302		-0.00075564		 0.00021215		 0.00003808	
Mg		0.04081607		8.07522374		5.65929675		 0.00075564		-0.00021215		-0.00003808	
Mg		2.33218383		2.98522391		4.84489695		-0.00075564		-0.00021215		-0.00003808	
Mg		2.41381503		8.15093573		2.75990282		 0.00075564		 0.00021215		 0.00003808	
O		3.63590997		1.17458180		1.64368686		-0.00005789		 0.00019390		 0.00028802	
O		1.11008888		9.96157737		5.96111291		 0.00005789		-0.00019390		-0.00028802	
O		1.26291102		4.87157801		5.14671263		-0.00005789		-0.00019390		-0.00028802	
O		3.48308878		6.26458163		2.45808714		 0.00005789		 0.00019390		 0.00028802	
O		1.04506916		4.78848172		2.22191100		 0.00028042		 0.00006843		 0.00000813	
O		3.70093065		6.34767792		5.38288877		-0.00028042		-0.00006843		-0.00000813	
O		3.41806906		1.25767808		4.56848897		 0.00028042		-0.00006843		-0.00000813	
O		1.32793074		9.87848156		3.03631080		-0.00028042		 0.00006843		 0.00000813	
O		1.31796415		1.68914404		0.46416875		-0.00053439		-0.00004375		-0.00023977	
O		3.42803566		9.44701560		7.14063055		 0.00053439		 0.00004375		 0.00023977	
O		3.69096405		4.35701576		6.32622980		-0.00053439		 0.00004375		 0.00023977	
O		1.05503576		6.77914388		1.27856902		 0.00053439		-0.00004375		-0.00023977	
O		3.42803566		9.03261578		4.55063167		 0.00000594		 0.00038128		-0.00043533	
O		1.31796415		2.10354386		3.05416810		-0.00000594		-0.00038128		 0.00043533	
O		1.05503576		7.19354370		3.86856790		 0.00000594		-0.00038128		 0.00043533	
O		3.69096405		3.94261594		3.73623187		-0.00000594		 0.00038128		-0.00043533	
