# total energy = -20637.4145462 eV	

CRYSTAL	
PRIMVEC	
		4.74599980		0.00000000		0.00000000	
		0.00000000		10.17999872		0.81439933	
		0.00000000		0.47807880		5.97600159	
PRIMCOORD
   28 1	
Si		2.02227004		1.07542172		1.57047174		-0.00026421		 0.00084011		-0.00063681	
Si		2.72372881		9.58265769		5.21992775		 0.00026421		-0.00084011		 0.00063681	
Si		4.39527089		4.49265786		4.81272761		-0.00026421		-0.00084011		 0.00063681	
Si		0.35072891		6.16542156		1.97767188		 0.00026421		 0.00084011		-0.00063681	
Mg		0.00000000		0.00000000		0.00000000		0.00000000		0.00000000		0.00000000	
Mg		2.37299990		5.08999984		0.40720014		0.00000000		0.00000000		0.00000000	
Mg		0.00000000		0.23903987		2.98799984		0.00000000		0.00000000		0.00000000	
Mg		2.37299990		5.32903971		3.39519998		0.00000000		0.00000000		-0.00000000	
Mg		4.70518373		2.94141596		1.71975195		-0.00069945		 0.00031572		-0.00089865	
Mg		0.04081607		7.71666346		5.07064802		 0.00069945		-0.00031572		 0.00089865	
Mg		2.33218383		2.62666410		4.66344788		-0.00069945		-0.00031572		 0.00089865	
Mg		2.41381503		8.03141579		2.12695208		 0.00069945		 0.00031572		-0.00089865	
O		3.63590997		1.05506186		1.56884292		 0.00026404		 0.00073535		-0.00038275	
O		1.11008888		9.60301756		5.22155658		-0.00026404		-0.00073535		 0.00038275	
O		1.26291102		4.51301772		4.81435691		 0.00026404		-0.00073535		 0.00038275	
O		3.48308878		6.14506169		1.97604305		-0.00026404		 0.00073535		-0.00038275	
O		1.04506916		4.66896179		1.85795499		-0.00016417		 0.00030982		-0.00035669	
O		3.70093065		5.98911763		4.93244498		 0.00016417		-0.00030982		 0.00035669	
O		3.41806906		0.89911780		4.52524484		-0.00016417		-0.00030982		 0.00035669	
O		1.32793074		9.75896162		2.26515512		 0.00016417		 0.00030982		-0.00035669	
O		1.31796415		1.67322406		0.33158497		 0.00043847		-0.00063682		 0.00006713	
O		3.42803566		8.98485583		6.45881452		-0.00043847		 0.00063682		-0.00006713	
O		3.69096405		3.89485600		6.05161486		 0.00043847		 0.00063682		-0.00006713	
O		1.05503576		6.76322390		0.73878511		-0.00043847		-0.00063682		 0.00006713	
O		3.42803566		8.77765545		3.86881564		-0.00008261		 0.00033726		-0.00053320	
O		1.31796415		1.88042397		2.92158290		 0.00008261		-0.00033726		 0.00053320	
O		1.05503576		6.97042381		3.32878304		-0.00008261		-0.00033726		 0.00053320	
O		3.69096405		3.68765561		3.46161598		 0.00008261		 0.00033726		-0.00053320	
