# total energy = -20635.9859364 eV	

CRYSTAL	
PRIMVEC	
		4.74599980		0.00000000		0.00000000	
		0.00000000		10.17999872		-1.22160137	
		0.00000000		-0.71712057		5.97600159	
PRIMCOORD
   28 1	
Si		2.02227004		0.77662212		1.37929195		 0.00028250		 0.00031191		 0.00020275	
Si		2.72372881		8.68625746		3.37510779		-0.00028250		-0.00031191		-0.00020275	
Si		4.39527089		3.59625762		3.98590800		 0.00028250		-0.00031191		-0.00020275	
Si		0.35072891		5.86662195		0.76849175		-0.00028250		 0.00031191		 0.00020275	
Mg		0.00000000		0.00000000		0.00000000		0.00000000		0.00000000		0.00000000	
Mg		2.37299990		5.08999984		-0.61080021		0.00000000		0.00000000		0.00000000	
Mg		0.00000000		-0.35855981		2.98799984		0.00000000		0.00000000		0.00000000	
Mg		2.37299990		4.73144002		2.37720011		0.00000000		0.00000000		0.00000000	
Mg		4.70518373		2.64261588		1.15537189		-0.00039289		 0.00035029		 0.00076420	
Mg		0.04081607		6.82026370		3.59902691		 0.00039289		-0.00035029		-0.00076420	
Mg		2.33218383		1.73026386		4.20982665		-0.00039289		-0.00035029		-0.00076420	
Mg		2.41381503		7.73261571		0.54457215		 0.00039289		 0.00035029		 0.00076420	
O		3.63590997		0.75626178		1.38173472		 0.00049637		-0.00016783		-0.00038198	
O		1.11008888		8.70661780		3.37266503		-0.00049637		 0.00016783		 0.00038198	
O		1.26291102		3.61661796		3.98346476		 0.00049637		 0.00016783		 0.00038198	
O		3.48308878		5.84626162		0.77093499		-0.00049637		-0.00016783		-0.00038198	
O		1.04506916		4.37016171		0.94806709		 0.00006681		 0.00038180		 0.00018114	
O		3.70093065		5.09271787		3.80633266		-0.00006681		-0.00038180		-0.00018114	
O		3.41806906		0.00271803		4.41713287		 0.00006681		-0.00038180		-0.00018114	
O		1.32793074		9.46016154		0.33726688		-0.00006681		 0.00038180		 0.00018114	
O		1.31796415		1.63342411		0.00012387		 0.00024374		-0.00001736		 0.00018227	
O		3.42803566		7.82945547		4.75427588		-0.00024374		 0.00001736		-0.00018227	
O		3.69096405		2.73945611		5.36507561		 0.00024374		 0.00001736		-0.00018227	
O		1.05503576		6.72342394		-0.61067586		-0.00024374		-0.00001736		 0.00018227	
O		3.42803566		8.14025581		2.16427700		 0.00022212		 0.00045053		-0.00010178	
O		1.31796415		1.32262377		2.59012275		-0.00022212		-0.00045053		 0.00010178	
O		1.05503576		6.41262360		1.97932301		 0.00022212		-0.00045053		 0.00010178	
O		3.69096405		3.05025597		2.77507673		-0.00022212		 0.00045053		-0.00010178	
