# total energy = -20634.6017329 eV	

CRYSTAL	
PRIMVEC	
		4.74599980		0.00000000		0.00000000	
		0.00000000		10.17999872		-1.62879866	
		0.00000000		-0.95615760		5.97600159	
PRIMCOORD
   28 1	
Si		2.02227004		0.71686191		1.34105581		-0.00003789		 0.00004731		-0.00008048	
Si		2.72372881		8.50697779		3.00614380		 0.00003789		-0.00004731		 0.00008048	
Si		4.39527089		3.41697795		3.82054360		-0.00003789		-0.00004731		 0.00008048	
Si		0.35072891		5.80686175		0.52665600		 0.00003789		 0.00004731		-0.00008048	
Mg		0.00000000		0.00000000		0.00000000		0.00000000		0.00000000		0.00000000	
Mg		2.37299990		5.08999984		-0.81439980		0.00000000		0.00000000		0.00000000	
Mg		0.00000000		-0.47807975		2.98799984		0.00000000		-0.00000000		-0.00000000	
Mg		2.37299990		4.61191961		2.17360004		0.00000000		0.00000000		0.00000000	
Mg		4.70518373		2.58285567		1.04249682		-0.00057244		 0.00025307		-0.00012546	
Mg		0.04081607		6.64098355		3.30470278		 0.00057244		-0.00025307		 0.00012546	
Mg		2.33218383		1.55098372		4.11910306		-0.00057244		-0.00025307		 0.00012546	
Mg		2.41381503		7.67285551		0.22809702		 0.00057244		 0.00025307		-0.00012546	
O		3.63590997		0.69650205		1.34431299		-0.00004419		 0.00023991		-0.00021612	
O		1.11008888		8.52733765		3.00288710		 0.00004419		-0.00023991		 0.00021612	
O		1.26291102		3.43733782		3.81728690		-0.00004419		-0.00023991		 0.00021612	
O		3.48308878		5.78650188		0.52991318		 0.00004419		 0.00023991		-0.00021612	
O		1.04506916		4.31040197		0.76608885		 0.00017479		 0.00002810		-0.00005884	
O		3.70093065		4.91343773		3.58111076		-0.00017479		-0.00002810		 0.00005884	
O		3.41806906		-0.17656211		4.39551104		 0.00017479		-0.00002810		 0.00005884	
O		1.32793074		9.40040181		-0.04831096		-0.00017479		 0.00002810		-0.00005884	
O		1.31796415		1.62546412		-0.06616778		-0.00003700		-0.00032612		-0.00036996	
O		3.42803566		7.59837558		4.41336786		 0.00003700		 0.00032612		 0.00036996	
O		3.69096405		2.50837575		5.22776767		-0.00003700		 0.00032612		 0.00036996	
O		1.05503576		6.71546395		-0.88056806		 0.00003700		-0.00032612		-0.00036996	
O		3.42803566		8.01277588		1.82336899		 0.00059925		 0.00003315		-0.00013473	
O		1.31796415		1.21106382		2.52382967		-0.00059925		-0.00003315		 0.00013473	
O		1.05503576		6.30106366		1.70942987		 0.00059925		-0.00003315		 0.00013473	
O		3.69096405		2.92277604		2.63776879		-0.00059925		 0.00003315		-0.00013473	
