# total energy = -66814.3786448 eV

CRYSTAL
PRIMVEC
		18.34339846		0.00000000		0.00000000
		0.00000000		7.06785817		0.00000000
		0.00000000		0.00000000		10.88440400
PRIMECORD
   112 1
Ca		14.17192622		7.06030253		2.52060857		 0.00017911		 0.00011970		-0.00014256
Ca		4.17147224		0.00756298		8.36378993		-0.00017911		-0.00011970		 0.00014256
Ca		4.17147224		0.00756298		2.52060857		-0.00017911		-0.00011970		-0.00014256
Ca		14.17192622		7.06030253		8.36378993		 0.00017911		 0.00011970		 0.00014256
Ca		13.34317147		3.52636977		2.92159159		-0.00017911		 0.00011970		 0.00014256
Ca		5.00022699		3.54149574		7.96281057		 0.00017911		-0.00011970		-0.00014256
Ca		5.00022699		3.54149574		2.92159159		 0.00017911		-0.00011970		 0.00014256
Ca		13.34317147		3.52636977		7.96281057		-0.00017911		 0.00011970		-0.00014256
Ca		7.55546239		1.11792374		8.14849713		 0.00025058		 0.00012448		 0.00068989
Ca		10.78793607		5.94993993		2.73590321		-0.00025058		-0.00012448		-0.00068989
Ca		10.78793607		5.94993993		8.14849713		-0.00025058		-0.00012448		 0.00068989
Ca		7.55546239		1.11792374		2.73590321		 0.00025058		 0.00012448		-0.00068989
Ca		1.61623684		4.65185650		8.17810337		-0.00025058		 0.00012448		-0.00068989
Ca		16.72716162		2.41600718		2.70629696		 0.00025058		-0.00012448		 0.00068989
Ca		16.72716162		2.41600718		8.17810337		 0.00025058		-0.00012448		-0.00068989
Ca		1.61623684		4.65185650		2.70629696		-0.00025058		 0.00012448		 0.00068989
Ca		6.10413271		5.67408273		0.00000000		-0.00052691		 0.00028946		0.00000000
Ca		12.23926575		1.39378278		0.00000000		 0.00052691		-0.00028946		-0.00000000
Ca		3.06756652		2.14014814		5.44220017		 0.00052691		 0.00028946		0.00000000
Ca		15.27583194		4.92771553		5.44220017		-0.00052691		-0.00028946		0.00000000
Ca		12.35024332		1.21425960		5.44220017		 0.00034274		-0.00045925		0.00000000
Ca		5.99315515		5.85360591		5.44220017		-0.00034274		 0.00045925		0.00000000
Ca		15.16485438		4.74819236		0.00000000		-0.00034274		-0.00045925		-0.00000000
Ca		3.17854409		2.31967315		0.00000000		 0.00034274		 0.00045925		-0.00000000
Ca		9.17169923		3.53393276		0.00000000		0.00000000		0.00000000		0.00000000
Ca		0.00000000		0.00000000		5.44220017		0.00000000		0.00000000		-0.00000000
Ca		9.17169923		3.53393276		5.44220017		0.00000000		0.00000000		0.00000000
Ca		0.00000000		0.00000000		0.00000000		0.00000000		0.00000000		0.00000000
Si		7.68918577		5.08462129		8.18267455		-0.00019758		-0.00051853		-0.00024845
Si		10.65421086		1.98324238		2.70172579		 0.00019758		 0.00051853		 0.00024845
Si		10.65421086		1.98324238		8.18267455		 0.00019758		 0.00051853		-0.00024845
Si		7.68918577		5.08462129		2.70172579		-0.00019758		-0.00051853		 0.00024845
Si		1.48251346		1.55068854		8.14392595		 0.00019758		-0.00051853		 0.00024845
Si		16.86088500		5.51717514		2.74047438		-0.00019758		 0.00051853		-0.00024845
Si		16.86088500		5.51717514		8.14392595		-0.00019758		 0.00051853		 0.00024845
Si		1.48251346		1.55068854		2.74047438		 0.00019758		-0.00051853		-0.00024845
Si		12.17689820		5.19841457		5.44220017		 0.00009624		-0.00019835		0.00000000
Si		6.16650026		1.86944911		5.44220017		-0.00009624		 0.00019835		0.00000000
Si		15.33819949		1.66448181		0.00000000		-0.00009624		-0.00019835		0.00000000
Si		3.00519897		5.40338370		0.00000000		 0.00009624		 0.00019835		0.00000000
Si		6.20337049		1.99879208		0.00000000		 0.00002775		-0.00023228		0.00000000
Si		12.14002797		5.06907343		0.00000000		-0.00002775		 0.00023228		0.00000000
Si		2.96832874		5.53272300		5.44220017		-0.00002775		-0.00023228		0.00000000
Si		15.37506972		1.53514067		5.44220017		 0.00002775		 0.00023228		0.00000000
Mg		9.17169923		0.00000000		5.44220017		0.00000000		0.00000000		0.00000000
Mg		0.00000000		3.53393276		0.00000000		0.00000000		0.00000000		0.00000000
Mg		9.17169923		0.00000000		0.00000000		0.00000000		0.00000000		-0.00000000
Mg		0.00000000		3.53393276		5.44220017		0.00000000		0.00000000		0.00000000
O		5.29573914		1.81644036		1.32789696		-0.00023445		-0.00032920		 0.00004685
O		13.04765933		5.25142332		9.55650337		 0.00023445		 0.00032920		-0.00004685
O		13.04765933		5.25142332		1.32789696		 0.00023445		 0.00032920		 0.00004685
O		5.29573914		1.81644036		9.55650337		-0.00023445		-0.00032920		-0.00004685
O		3.87596009		5.35037311		4.11430321		 0.00023445		-0.00032920		-0.00004685
O		14.46743837		1.71749056		6.77009712		-0.00023445		 0.00032920		 0.00004685
O		14.46743837		1.71749056		4.11430321		-0.00023445		 0.00032920		-0.00004685
O		3.87596009		5.35037311		6.77009712		 0.00023445		-0.00032920		 0.00004685
O		12.78168005		5.98930853		4.13933644		-0.00009563		 0.00032060		 0.00006183
O		5.56171841		1.07855514		6.74506205		 0.00009563		-0.00032060		-0.00006183
O		5.56171841		1.07855514		4.13933644		 0.00009563		-0.00032060		 0.00006183
O		12.78168005		5.98930853		6.74506205		-0.00009563		 0.00032060		-0.00006183
O		14.73341764		2.45537578		1.30286372		 0.00009563		 0.00032060		-0.00006183
O		3.60998082		4.61248973		9.58153661		-0.00009563		-0.00032060		 0.00006183
O		3.60998082		4.61248973		1.30286372		-0.00009563		-0.00032060		-0.00006183
O		14.73341764		2.45537578		9.58153661		 0.00009563		 0.00032060		 0.00006183
O		8.72595465		5.51929564		9.36711512		 0.00000526		 0.00027343		-0.00026172
O		9.61744381		1.54856804		1.51728521		-0.00000526		-0.00027343		 0.00026172
O		9.61744381		1.54856804		9.36711512		-0.00000526		-0.00027343		-0.00026172
O		8.72595465		5.51929564		1.51728521		 0.00000526		 0.00027343		 0.00026172
O		0.44574458		1.98536288		6.95948538		-0.00000526		 0.00027343		 0.00026172
O		17.89765388		5.08250263		3.92491496		 0.00000526		-0.00027343		-0.00026172
O		17.89765388		5.08250263		6.95948538		 0.00000526		-0.00027343		 0.00026172
O		0.44574458		1.98536288		3.92491496		-0.00000526		 0.00027343		-0.00026172
O		6.21712804		5.72567721		8.55731461		-0.00013570		-0.00019677		 0.00037193
O		12.12627042		1.34218647		2.32708572		 0.00013570		 0.00019677		-0.00037193
O		12.12627042		1.34218647		8.55731461		 0.00013570		 0.00019677		 0.00037193
O		6.21712804		5.72567721		2.32708572		-0.00013570		-0.00019677		-0.00037193
O		2.95457119		2.19174446		7.76928405		 0.00013570		-0.00019677		-0.00037193
O		15.38882727		4.87611922		3.11511445		-0.00013570		 0.00019677		 0.00037193
O		15.38882727		4.87611922		7.76928405		-0.00013570		 0.00019677		-0.00037193
O		2.95457119		2.19174446		3.11511445		 0.00013570		-0.00019677		 0.00037193
O		6.89711782		3.50495385		0.00000000		-0.00038962		-0.00012389		0.00000000
O		11.44628064		3.56290982		0.00000000		 0.00038962		 0.00012389		0.00000000
O		2.27458141		7.03888661		5.44220017		 0.00038962		-0.00012389		0.00000000
O		16.06881705		0.02897890		5.44220017		-0.00038962		 0.00012389		0.00000000
O		7.54830847		3.45971903		7.82697220		-0.00030835		-0.00058045		-0.00008810
O		10.79508999		3.60814464		3.05742813		 0.00030835		 0.00058045		 0.00008810
O		10.79508999		3.60814464		7.82697220		 0.00030835		 0.00058045		-0.00008810
O		7.54830847		3.45971903		3.05742813		-0.00030835		-0.00058045		 0.00008810
O		1.62339076		6.99365179		8.49962829		 0.00030835		-0.00058045		 0.00008810
O		16.72000770		0.07421372		2.38477204		-0.00030835		 0.00058045		-0.00008810
O		16.72000770		0.07421372		8.49962829		-0.00030835		 0.00058045		 0.00008810
O		1.62339076		6.99365179		2.38477204		 0.00030835		-0.00058045		-0.00008810
O		7.29700391		0.73859144		0.00000000		-0.00061169		-0.00078146		0.00000000
O		11.04639455		6.32927224		0.00000000		 0.00061169		 0.00078146		0.00000000
O		1.87469532		4.27252419		5.44220017		 0.00061169		-0.00078146		0.00000000
O		16.46870314		2.79534132		5.44220017		-0.00061169		 0.00078146		0.00000000
O		10.57313487		5.45497818		5.44220017		-0.00010447		 0.00057660		-0.00000000
O		7.77026359		1.61288733		5.44220017		 0.00010447		-0.00057660		-0.00000000
O		16.94196282		1.92104542		0.00000000		 0.00010447		 0.00057660		-0.00000000
O		1.40143564		5.14681826		0.00000000		-0.00010447		-0.00057660		-0.00000000
O		12.74132457		3.62298812		5.44220017		 0.00003013		-0.00048865		0.00000000
O		5.60207389		3.44487739		5.44220017		-0.00003013		 0.00048865		0.00000000
O		14.77377312		0.08905537		0.00000000		-0.00003013		-0.00048865		0.00000000
O		3.56962534		6.97881015		0.00000000		 0.00003013		 0.00048865		0.00000000
O		8.14997194		5.94407555		6.85281851		 0.00011412		 0.00016192		 0.00048534
O		10.19342652		1.12378996		4.03158182		-0.00011412		-0.00016192		-0.00048534
O		10.19342652		1.12378996		6.85281851		-0.00011412		-0.00016192		 0.00048534
O		8.14997194		5.94407555		4.03158182		 0.00011412		 0.00016192		-0.00048534
O		1.02172729		2.41014279		9.47378198		-0.00011412		 0.00016192		-0.00048534
O		17.32167117		4.65772272		1.41061835		 0.00011412		-0.00016192		 0.00048534
O		17.32167117		4.65772272		9.47378198		 0.00011412		-0.00016192		-0.00048534
O		1.02172729		2.41014279		1.41061835		-0.00011412		 0.00016192		 0.00048534
