# total energy = -66812.5513441 eV

CRYSTAL
PRIMVEC
		18.34339846		0.00000000		0.00000000
		0.00000000		6.39472882		0.00000000
		0.00000000		0.00000000		10.88440400
PRIMECORD
   112 1
Ca		14.17192622		6.38789224		2.52060857		 0.00036816		 0.00012987		-0.00058000
Ca		4.17147224		0.00684209		8.36378993		-0.00036816		-0.00012987		 0.00058000
Ca		4.17147224		0.00684209		2.52060857		-0.00036816		-0.00012987		-0.00058000
Ca		14.17192622		6.38789224		8.36378993		 0.00036816		 0.00012987		 0.00058000
Ca		13.34317147		3.19052416		2.92159159		-0.00036816		 0.00012987		 0.00058000
Ca		5.00022699		3.20421017		7.96281057		 0.00036816		-0.00012987		-0.00058000
Ca		5.00022699		3.20421017		2.92159159		 0.00036816		-0.00012987		 0.00058000
Ca		13.34317147		3.19052416		7.96281057		-0.00036816		 0.00012987		-0.00058000
Ca		7.55546239		1.01145499		8.14849713		 0.00061859		-0.00003219		 0.00020864
Ca		10.78793607		5.38327934		2.73590321		-0.00061859		 0.00003219		-0.00020864
Ca		10.78793607		5.38327934		8.14849713		-0.00061859		 0.00003219		 0.00020864
Ca		7.55546239		1.01145499		2.73590321		 0.00061859		-0.00003219		-0.00020864
Ca		1.61623684		4.20882307		8.17810337		-0.00061859		-0.00003219		-0.00020864
Ca		16.72716162		2.18591126		2.70629696		 0.00061859		 0.00003219		 0.00020864
Ca		16.72716162		2.18591126		8.17810337		 0.00061859		 0.00003219		-0.00020864
Ca		1.61623684		4.20882307		2.70629696		-0.00061859		-0.00003219		 0.00020864
Ca		6.10413271		5.13369355		0.00000000		-0.00054573		-0.00060867		-0.00000000
Ca		12.23926575		1.26104261		0.00000000		 0.00054573		 0.00060867		-0.00000000
Ca		3.06756652		1.93632547		5.44220017		 0.00054573		-0.00060867		0.00000000
Ca		15.27583194		4.45840885		5.44220017		-0.00054573		 0.00060867		0.00000000
Ca		12.35024332		1.09861548		5.44220017		 0.00018217		 0.00044006		-0.00000000
Ca		5.99315515		5.29611884		5.44220017		-0.00018217		-0.00044006		-0.00000000
Ca		15.16485438		4.29598356		0.00000000		-0.00018217		 0.00044006		0.00000000
Ca		3.17854409		2.09875260		0.00000000		 0.00018217		-0.00044006		-0.00000000
Ca		9.17169923		3.19736625		0.00000000		0.00000000		0.00000000		0.00000000
Ca		0.00000000		0.00000000		5.44220017		0.00000000		0.00000000		0.00000000
Ca		9.17169923		3.19736625		5.44220017		0.00000000		0.00000000		0.00000000
Ca		0.00000000		0.00000000		0.00000000		0.00000000		0.00000000		0.00000000
Si		7.68918577		4.60037208		8.18267455		-0.00002844		-0.00005883		 0.00030997
Si		10.65421086		1.79436224		2.70172579		 0.00002844		 0.00005883		-0.00030997
Si		10.65421086		1.79436224		8.18267455		 0.00002844		 0.00005883		 0.00030997
Si		7.68918577		4.60037208		2.70172579		-0.00002844		-0.00005883		-0.00030997
Si		1.48251346		1.40300584		8.14392595		 0.00002844		-0.00005883		-0.00030997
Si		16.86088500		4.99173032		2.74047438		-0.00002844		 0.00005883		 0.00030997
Si		16.86088500		4.99173032		8.14392595		-0.00002844		 0.00005883		-0.00030997
Si		1.48251346		1.40300584		2.74047438		 0.00002844		-0.00005883		 0.00030997
Si		12.17689820		4.70332624		5.44220017		 0.00072481		-0.00079628		0.00000000
Si		6.16650026		1.69140809		5.44220017		-0.00072481		 0.00079628		0.00000000
Si		15.33819949		1.50596000		0.00000000		-0.00072481		-0.00079628		-0.00000000
Si		3.00519897		4.88877433		0.00000000		 0.00072481		 0.00079628		-0.00000000
Si		6.20337049		1.80843163		0.00000000		-0.00033142		 0.00015929		0.00000000
Si		12.14002797		4.58630453		0.00000000		 0.00033142		-0.00015929		0.00000000
Si		2.96832874		5.00579788		5.44220017		 0.00033142		 0.00015929		-0.00000000
Si		15.37506972		1.38893645		5.44220017		-0.00033142		-0.00015929		-0.00000000
Mg		9.17169923		0.00000000		5.44220017		0.00000000		0.00000000		0.00000000
Mg		0.00000000		3.19736625		0.00000000		0.00000000		0.00000000		0.00000000
Mg		9.17169923		0.00000000		0.00000000		0.00000000		0.00000000		0.00000000
Mg		0.00000000		3.19736625		5.44220017		0.00000000		0.00000000		0.00000000
O		5.29573914		1.64344744		1.32789696		-0.00008988		-0.00011643		 0.00019876
O		13.04765933		4.75128873		9.55650337		 0.00008988		 0.00011643		-0.00019876
O		13.04765933		4.75128873		1.32789696		 0.00008988		 0.00011643		 0.00019876
O		5.29573914		1.64344744		9.55650337		-0.00008988		-0.00011643		-0.00019876
O		3.87596009		4.84081368		4.11430321		 0.00008988		-0.00011643		-0.00019876
O		14.46743837		1.55392065		6.77009712		-0.00008988		 0.00011643		 0.00019876
O		14.46743837		1.55392065		4.11430321		-0.00008988		 0.00011643		-0.00019876
O		3.87596009		4.84081368		6.77009712		 0.00008988		-0.00011643		 0.00019876
O		12.78168005		5.41889855		4.13933644		-0.00041503		-0.00025050		 0.00004725
O		5.56171841		0.97583578		6.74506205		 0.00041503		 0.00025050		-0.00004725
O		5.56171841		0.97583578		4.13933644		 0.00041503		 0.00025050		 0.00004725
O		12.78168005		5.41889855		6.74506205		-0.00041503		-0.00025050		-0.00004725
O		14.73341764		2.22153047		1.30286372		 0.00041503		-0.00025050		-0.00004725
O		3.60998082		4.17320386		9.58153661		-0.00041503		 0.00025050		 0.00004725
O		3.60998082		4.17320386		1.30286372		-0.00041503		 0.00025050		-0.00004725
O		14.73341764		2.22153047		9.58153661		 0.00041503		-0.00025050		 0.00004725
O		8.72595465		4.99364721		9.36711512		-0.00003009		-0.00014573		 0.00023632
O		9.61744381		1.40108528		1.51728521		 0.00003009		 0.00014573		-0.00023632
O		9.61744381		1.40108528		9.36711512		 0.00003009		 0.00014573		 0.00023632
O		8.72595465		4.99364721		1.51728521		-0.00003009		-0.00014573		-0.00023632
O		0.44574458		1.79628096		6.95948538		 0.00003009		-0.00014573		-0.00023632
O		17.89765388		4.59845336		3.92491496		-0.00003009		 0.00014573		 0.00023632
O		17.89765388		4.59845336		6.95948538		-0.00003009		 0.00014573		-0.00023632
O		0.44574458		1.79628096		3.92491496		 0.00003009		-0.00014573		 0.00023632
O		6.21712804		5.18037567		8.55731461		-0.00016432		-0.00025618		-0.00012102
O		12.12627042		1.21436049		2.32708572		 0.00016432		 0.00025618		 0.00012102
O		12.12627042		1.21436049		8.55731461		 0.00016432		 0.00025618		-0.00012102
O		6.21712804		5.18037567		2.32708572		-0.00016432		-0.00025618		 0.00012102
O		2.95457119		1.98300759		7.76928405		 0.00016432		-0.00025618		 0.00012102
O		15.38882727		4.41172674		3.11511445		-0.00016432		 0.00025618		-0.00012102
O		15.38882727		4.41172674		7.76928405		-0.00016432		 0.00025618		 0.00012102
O		2.95457119		1.98300759		3.11511445		 0.00016432		-0.00025618		-0.00012102
O		6.89711782		3.17114803		0.00000000		-0.00020625		-0.00040431		0.00000000
O		11.44628064		3.22358630		0.00000000		 0.00020625		 0.00040431		0.00000000
O		2.27458141		6.36851611		5.44220017		 0.00020625		-0.00040431		-0.00000000
O		16.06881705		0.02621822		5.44220017		-0.00020625		 0.00040431		-0.00000000
O		7.54830847		3.13022207		7.82697220		 0.00009887		 0.00018065		 0.00031443
O		10.79508999		3.26451226		3.05742813		-0.00009887		-0.00018065		-0.00031443
O		10.79508999		3.26451226		7.82697220		-0.00009887		-0.00018065		 0.00031443
O		7.54830847		3.13022207		3.05742813		 0.00009887		 0.00018065		-0.00031443
O		1.62339076		6.32759015		8.49962829		-0.00009887		 0.00018065		-0.00031443
O		16.72000770		0.06714418		2.38477204		 0.00009887		-0.00018065		 0.00031443
O		16.72000770		0.06714418		8.49962829		 0.00009887		-0.00018065		-0.00031443
O		1.62339076		6.32759015		2.38477204		-0.00009887		 0.00018065		 0.00031443
O		7.29700391		0.66825001		0.00000000		-0.00019940		 0.00045787		0.00000000
O		11.04639455		5.72648432		0.00000000		 0.00019940		-0.00045787		0.00000000
O		1.87469532		3.86561625		5.44220017		 0.00019940		 0.00045787		0.00000000
O		16.46870314		2.52911807		5.44220017		-0.00019940		-0.00045787		0.00000000
O		10.57313487		4.93545645		5.44220017		 0.00076677		 0.00001925		0.00000000
O		7.77026359		1.45927972		5.44220017		-0.00076677		-0.00001925		0.00000000
O		16.94196282		1.73808837		0.00000000		-0.00076677		 0.00001925		-0.00000000
O		1.40143564		4.65664596		0.00000000		 0.00076677		-0.00001925		-0.00000000
O		12.74132457		3.27794146		5.44220017		-0.00059888		-0.00088073		0.00000000
O		5.60207389		3.11679470		5.44220017		 0.00059888		 0.00088073		0.00000000
O		14.77377312		0.08057338		0.00000000		 0.00059888		-0.00088073		0.00000000
O		3.56962534		6.31416095		0.00000000		-0.00059888		 0.00088073		0.00000000
O		8.14997194		5.37797259		6.85281851		 0.00018568		-0.00018876		 0.00035289
O		10.19342652		1.01676357		4.03158182		-0.00018568		 0.00018876		-0.00035289
O		10.19342652		1.01676357		6.85281851		-0.00018568		 0.00018876		 0.00035289
O		8.14997194		5.37797259		4.03158182		 0.00018568		-0.00018876		-0.00035289
O		1.02172729		2.18060451		9.47378198		-0.00018568		-0.00018876		-0.00035289
O		17.32167117		4.21412982		1.41061835		 0.00018568		 0.00018876		 0.00035289
O		17.32167117		4.21412982		9.47378198		 0.00018568		 0.00018876		-0.00035289
O		1.02172729		2.18060451		1.41061835		-0.00018568		-0.00018876		 0.00035289
