# total energy = -66815.1969097 eV

CRYSTAL
PRIMVEC
		18.34339846		0.00000000		0.00000000
		0.00000000		6.89957584		0.00000000
		0.00000000		0.00000000		10.88440400
PRIMECORD
   112 1
Ca		14.17192622		6.89219996		2.52060857		-0.00012618		 0.00031322		 0.00021304
Ca		4.17147224		0.00738322		8.36378993		 0.00012618		-0.00031322		-0.00021304
Ca		4.17147224		0.00738322		2.52060857		 0.00012618		-0.00031322		 0.00021304
Ca		14.17192622		6.89219996		8.36378993		-0.00012618		 0.00031322		-0.00021304
Ca		13.34317147		3.44240837		2.92159159		 0.00012618		 0.00031322		-0.00021304
Ca		5.00022699		3.45717480		7.96281057		-0.00012618		-0.00031322		 0.00021304
Ca		5.00022699		3.45717480		2.92159159		-0.00012618		-0.00031322		-0.00021304
Ca		13.34317147		3.44240837		7.96281057		 0.00012618		 0.00031322		 0.00021304
Ca		7.55546239		1.09130747		8.14849713		 0.00018190		-0.00023078		-0.00009943
Ca		10.78793607		5.80827570		2.73590321		-0.00018190		 0.00023078		 0.00009943
Ca		10.78793607		5.80827570		8.14849713		-0.00018190		 0.00023078		-0.00009943
Ca		7.55546239		1.09130747		2.73590321		 0.00018190		-0.00023078		 0.00009943
Ca		1.61623684		4.54109723		8.17810337		-0.00018190		-0.00023078		 0.00009943
Ca		16.72716162		2.35848411		2.70629696		 0.00018190		 0.00023078		-0.00009943
Ca		16.72716162		2.35848411		8.17810337		 0.00018190		 0.00023078		 0.00009943
Ca		1.61623684		4.54109723		2.70629696		-0.00018190		-0.00023078		-0.00009943
Ca		6.10413271		5.53898544		0.00000000		 0.00076415		-0.00037634		0.00000000
Ca		12.23926575		1.36059773		0.00000000		-0.00076415		 0.00037634		0.00000000
Ca		3.06756652		2.08919385		5.44220017		-0.00076415		-0.00037634		-0.00000000
Ca		15.27583194		4.81038932		5.44220017		 0.00076415		 0.00037634		-0.00000000
Ca		12.35024332		1.18534857		5.44220017		 0.00000193		 0.00053903		0.00000000
Ca		5.99315515		5.71423460		5.44220017		-0.00000193		-0.00053903		0.00000000
Ca		15.16485438		4.63514016		0.00000000		-0.00000193		 0.00053903		-0.00000000
Ca		3.17854409		2.26444301		0.00000000		 0.00000193		-0.00053903		-0.00000000
Ca		9.17169923		3.44979159		0.00000000		0.00000000		0.00000000		0.00000000
Ca		0.00000000		0.00000000		5.44220017		0.00000000		0.00000000		0.00000000
Ca		9.17169923		3.44979159		5.44220017		0.00000000		0.00000000		-0.00000000
Ca		0.00000000		0.00000000		0.00000000		0.00000000		0.00000000		-0.00000000
Si		7.68918577		4.96355853		8.18267455		-0.00001054		-0.00024316		-0.00017705
Si		10.65421086		1.93602281		2.70172579		 0.00001054		 0.00024316		 0.00017705
Si		10.65421086		1.93602281		8.18267455		 0.00001054		 0.00024316		-0.00017705
Si		7.68918577		4.96355853		2.70172579		-0.00001054		-0.00024316		 0.00017705
Si		1.48251346		1.51376878		8.14392595		 0.00001054		-0.00024316		 0.00017705
Si		16.86088500		5.38581439		2.74047438		-0.00001054		 0.00024316		-0.00017705
Si		16.86088500		5.38581439		8.14392595		-0.00001054		 0.00024316		 0.00017705
Si		1.48251346		1.51376878		2.74047438		 0.00001054		-0.00024316		-0.00017705
Si		12.17689820		5.07464249		5.44220017		 0.00003627		 0.00009340		0.00000000
Si		6.16650026		1.82494069		5.44220017		-0.00003627		-0.00009340		0.00000000
Si		15.33819949		1.62485090		0.00000000		-0.00003627		 0.00009340		-0.00000000
Si		3.00519897		5.27473044		0.00000000		 0.00003627		-0.00009340		-0.00000000
Si		6.20337049		1.95120197		0.00000000		-0.00003303		-0.00018591		0.00000000
Si		12.14002797		4.94838121		0.00000000		 0.00003303		 0.00018591		0.00000000
Si		2.96832874		5.40099356		5.44220017		 0.00003303		-0.00018591		-0.00000000
Si		15.37506972		1.49858962		5.44220017		-0.00003303		 0.00018591		-0.00000000
Mg		9.17169923		0.00000000		5.44220017		0.00000000		0.00000000		0.00000000
Mg		0.00000000		3.44979159		0.00000000		0.00000000		0.00000000		0.00000000
Mg		9.17169923		0.00000000		0.00000000		0.00000000		0.00000000		0.00000000
Mg		0.00000000		3.44979159		5.44220017		0.00000000		0.00000000		-0.00000000
O		5.29573914		1.77319213		1.32789696		-0.00002881		 0.00011968		 0.00014047
O		13.04765933		5.12638921		9.55650337		 0.00002881		-0.00011968		-0.00014047
O		13.04765933		5.12638921		1.32789696		 0.00002881		-0.00011968		 0.00014047
O		5.29573914		1.77319213		9.55650337		-0.00002881		 0.00011968		-0.00014047
O		3.87596009		5.22298371		4.11430321		 0.00002881		 0.00011968		-0.00014047
O		14.46743837		1.67659946		6.77009712		-0.00002881		-0.00011968		 0.00014047
O		14.46743837		1.67659946		4.11430321		-0.00002881		-0.00011968		-0.00014047
O		3.87596009		5.22298371		6.77009712		 0.00002881		 0.00011968		 0.00014047
O		12.78168005		5.84670512		4.13933644		-0.00028238		 0.00053138		 0.00011870
O		5.56171841		1.05287622		6.74506205		 0.00028238		-0.00053138		-0.00011870
O		5.56171841		1.05287622		4.13933644		 0.00028238		-0.00053138		 0.00011870
O		12.78168005		5.84670512		6.74506205		-0.00028238		 0.00053138		-0.00011870
O		14.73341764		2.39691537		1.30286372		 0.00028238		 0.00053138		-0.00011870
O		3.60998082		4.50266597		9.58153661		-0.00028238		-0.00053138		 0.00011870
O		3.60998082		4.50266597		1.30286372		-0.00028238		-0.00053138		-0.00011870
O		14.73341764		2.39691537		9.58153661		 0.00028238		 0.00053138		 0.00011870
O		8.72595465		5.38788353		9.36711512		-0.00021520		 0.00026960		-0.00017202
O		9.61744381		1.51169781		1.51728521		 0.00021520		-0.00026960		 0.00017202
O		9.61744381		1.51169781		9.36711512		 0.00021520		-0.00026960		-0.00017202
O		8.72595465		5.38788353		1.51728521		-0.00021520		 0.00026960		 0.00017202
O		0.44574458		1.93809378		6.95948538		 0.00021520		 0.00026960		 0.00017202
O		17.89765388		4.96148940		3.92491496		-0.00021520		-0.00026960		-0.00017202
O		17.89765388		4.96148940		6.95948538		-0.00021520		-0.00026960		 0.00017202
O		0.44574458		1.93809378		3.92491496		 0.00021520		 0.00026960		-0.00017202
O		6.21712804		5.58935274		8.55731461		 0.00026862		 0.00028964		 0.00031212
O		12.12627042		1.31023043		2.32708572		-0.00026862		-0.00028964		-0.00031212
O		12.12627042		1.31023043		8.55731461		-0.00026862		-0.00028964		 0.00031212
O		6.21712804		5.58935274		2.32708572		 0.00026862		 0.00028964		-0.00031212
O		2.95457119		2.13956116		7.76928405		-0.00026862		 0.00028964		-0.00031212
O		15.38882727		4.76002202		3.11511445		 0.00026862		-0.00028964		 0.00031212
O		15.38882727		4.76002202		7.76928405		 0.00026862		-0.00028964		-0.00031212
O		2.95457119		2.13956116		3.11511445		-0.00026862		 0.00028964		 0.00031212
O		6.89711782		3.42150240		0.00000000		-0.00031511		 0.00006089		-0.00000000
O		11.44628064		3.47807894		0.00000000		 0.00031511		-0.00006089		0.00000000
O		2.27458141		6.87129398		5.44220017		 0.00031511		 0.00006089		0.00000000
O		16.06881705		0.02828735		5.44220017		-0.00031511		-0.00006089		0.00000000
O		7.54830847		3.37734433		7.82697220		 0.00018156		-0.00057192		 0.00002332
O		10.79508999		3.52223700		3.05742813		-0.00018156		 0.00057192		-0.00002332
O		10.79508999		3.52223700		7.82697220		-0.00018156		 0.00057192		 0.00002332
O		7.54830847		3.37734433		3.05742813		 0.00018156		-0.00057192		-0.00002332
O		1.62339076		6.82713592		8.49962829		-0.00018156		-0.00057192		-0.00002332
O		16.72000770		0.07244542		2.38477204		 0.00018156		 0.00057192		 0.00002332
O		16.72000770		0.07244542		8.49962829		 0.00018156		 0.00057192		-0.00002332
O		1.62339076		6.82713592		2.38477204		-0.00018156		-0.00057192		 0.00002332
O		7.29700391		0.72100562		0.00000000		-0.00013722		-0.00026373		0.00000000
O		11.04639455		6.17857572		0.00000000		 0.00013722		 0.00026373		-0.00000000
O		1.87469532		4.17079721		5.44220017		 0.00013722		-0.00026373		-0.00000000
O		16.46870314		2.72878413		5.44220017		-0.00013722		 0.00026373		0.00000000
O		10.57313487		5.32509774		5.44220017		 0.00003724		 0.00042518		-0.00000000
O		7.77026359		1.57448543		5.44220017		-0.00003724		-0.00042518		0.00000000
O		16.94196282		1.87530616		0.00000000		-0.00003724		 0.00042518		0.00000000
O		1.40143564		5.02427518		0.00000000		 0.00003724		-0.00042518		0.00000000
O		12.74132457		3.53672646		5.44220017		 0.00020857		-0.00017446		0.00000000
O		5.60207389		3.36285672		5.44220017		-0.00020857		 0.00017446		0.00000000
O		14.77377312		0.08693487		0.00000000		-0.00020857		-0.00017446		-0.00000000
O		3.56962534		6.81264831		0.00000000		 0.00020857		 0.00017446		0.00000000
O		8.14997194		5.80254889		6.85281851		 0.00014827		-0.00002383		 0.00011065
O		10.19342652		1.09703245		4.03158182		-0.00014827		 0.00002383		-0.00011065
O		10.19342652		1.09703245		6.85281851		-0.00014827		 0.00002383		 0.00011065
O		8.14997194		5.80254889		4.03158182		 0.00014827		-0.00002383		-0.00011065
O		1.02172729		2.35275730		9.47378198		-0.00014827		-0.00002383		-0.00011065
O		17.32167117		4.54682403		1.41061835		 0.00014827		 0.00002383		 0.00011065
O		17.32167117		4.54682403		9.47378198		 0.00014827		 0.00002383		-0.00011065
O		1.02172729		2.35275730		1.41061835		-0.00014827		-0.00002383		 0.00011065
