# total energy = -66813.1299729 eV

CRYSTAL
PRIMVEC
		18.34339846		0.00000000		0.00000000
		0.00000000		7.23614051		0.00000000
		0.00000000		0.00000000		10.88440400
PRIMECORD
   112 1
Ca		14.17192622		7.22840510		2.52060857		-0.00003558		-0.00001390		-0.00025319
Ca		4.17147224		0.00774275		8.36378993		 0.00003558		 0.00001390		 0.00025319
Ca		4.17147224		0.00774275		2.52060857		 0.00003558		 0.00001390		-0.00025319
Ca		14.17192622		7.22840510		8.36378993		-0.00003558		-0.00001390		 0.00025319
Ca		13.34317147		3.61033118		2.92159159		 0.00003558		-0.00001390		 0.00025319
Ca		5.00022699		3.62581667		7.96281057		-0.00003558		 0.00001390		-0.00025319
Ca		5.00022699		3.62581667		2.92159159		-0.00003558		 0.00001390		 0.00025319
Ca		13.34317147		3.61033118		7.96281057		 0.00003558		-0.00001390		-0.00025319
Ca		7.55546239		1.14454185		8.14849713		-0.00046860		 0.00019830		 0.00050687
Ca		10.78793607		6.09160600		2.73590321		 0.00046860		-0.00019830		-0.00050687
Ca		10.78793607		6.09160600		8.14849713		 0.00046860		-0.00019830		 0.00050687
Ca		7.55546239		1.14454185		2.73590321		-0.00046860		 0.00019830		-0.00050687
Ca		1.61623684		4.76261577		8.17810337		 0.00046860		 0.00019830		-0.00050687
Ca		16.72716162		2.47353207		2.70629696		-0.00046860		-0.00019830		 0.00050687
Ca		16.72716162		2.47353207		8.17810337		-0.00046860		-0.00019830		-0.00050687
Ca		1.61623684		4.76261577		2.70629696		 0.00046860		 0.00019830		 0.00050687
Ca		6.10413271		5.80917820		0.00000000		-0.00034573		 0.00025745		0.00000000
Ca		12.23926575		1.42696782		0.00000000		 0.00034573		-0.00025745		0.00000000
Ca		3.06756652		2.19110427		5.44220017		 0.00034573		 0.00025745		-0.00000000
Ca		15.27583194		5.04504174		5.44220017		-0.00034573		-0.00025745		-0.00000000
Ca		12.35024332		1.24317063		5.44220017		 0.00064381		-0.00038853		-0.00000000
Ca		5.99315515		5.99297721		5.44220017		-0.00064381		 0.00038853		-0.00000000
Ca		15.16485438		4.86124456		0.00000000		-0.00064381		-0.00038853		-0.00000000
Ca		3.17854409		2.37490329		0.00000000		 0.00064381		 0.00038853		-0.00000000
Ca		9.17169923		3.61807392		0.00000000		0.00000000		0.00000000		0.00000000
Ca		0.00000000		0.00000000		5.44220017		0.00000000		0.00000000		0.00000000
Ca		9.17169923		3.61807392		5.44220017		0.00000000		0.00000000		0.00000000
Ca		0.00000000		0.00000000		0.00000000		0.00000000		0.00000000		-0.00000000
Si		7.68918577		5.20568406		8.18267455		-0.00009639		-0.00072038		-0.00004147
Si		10.65421086		2.03046379		2.70172579		 0.00009639		 0.00072038		 0.00004147
Si		10.65421086		2.03046379		8.18267455		 0.00009639		 0.00072038		-0.00004147
Si		7.68918577		5.20568406		2.70172579		-0.00009639		-0.00072038		 0.00004147
Si		1.48251346		1.58761013		8.14392595		 0.00009639		-0.00072038		 0.00004147
Si		16.86088500		5.64853772		2.74047438		-0.00009639		 0.00072038		-0.00004147
Si		16.86088500		5.64853772		8.14392595		-0.00009639		 0.00072038		 0.00004147
Si		1.48251346		1.58761013		2.74047438		 0.00009639		-0.00072038		-0.00004147
Si		12.17689820		5.32218665		5.44220017		-0.00054683		-0.00029448		0.00000000
Si		6.16650026		1.91396120		5.44220017		 0.00054683		 0.00029448		0.00000000
Si		15.33819949		1.70411272		0.00000000		 0.00054683		-0.00029448		-0.00000000
Si		3.00519897		5.53203513		0.00000000		-0.00054683		 0.00029448		-0.00000000
Si		6.20337049		2.04638219		0.00000000		-0.00019763		-0.00010550		-0.00000000
Si		12.14002797		5.18976565		0.00000000		 0.00019763		 0.00010550		-0.00000000
Si		2.96832874		5.66445612		5.44220017		 0.00019763		-0.00010550		0.00000000
Si		15.37506972		1.57169173		5.44220017		-0.00019763		 0.00010550		0.00000000
Mg		9.17169923		0.00000000		5.44220017		0.00000000		0.00000000		0.00000000
Mg		0.00000000		3.61807392		0.00000000		0.00000000		0.00000000		0.00000000
Mg		9.17169923		0.00000000		0.00000000		0.00000000		0.00000000		0.00000000
Mg		0.00000000		3.61807392		5.44220017		0.00000000		0.00000000		0.00000000
O		5.29573914		1.85969042		1.32789696		-0.00026384		-0.00018426		 0.00002276
O		13.04765933		5.37645743		9.55650337		 0.00026384		 0.00018426		-0.00002276
O		13.04765933		5.37645743		1.32789696		 0.00026384		 0.00018426		 0.00002276
O		5.29573914		1.85969042		9.55650337		-0.00026384		-0.00018426		-0.00002276
O		3.87596009		5.47776251		4.11430321		 0.00026384		-0.00018426		-0.00002276
O		14.46743837		1.75838350		6.77009712		-0.00026384		 0.00018426		 0.00002276
O		14.46743837		1.75838350		4.11430321		-0.00026384		 0.00018426		-0.00002276
O		3.87596009		5.47776251		6.77009712		 0.00026384		-0.00018426		 0.00002276
O		12.78168005		6.13191011		4.13933644		 0.00031667		-0.00007859		 0.00045819
O		5.56171841		1.10423590		6.74506205		-0.00031667		 0.00007859		-0.00045819
O		5.56171841		1.10423590		4.13933644		-0.00031667		 0.00007859		 0.00045819
O		12.78168005		6.13191011		6.74506205		 0.00031667		-0.00007859		-0.00045819
O		14.73341764		2.51383802		1.30286372		-0.00031667		-0.00007859		-0.00045819
O		3.60998082		4.72230983		9.58153661		 0.00031667		 0.00007859		 0.00045819
O		3.60998082		4.72230983		1.30286372		 0.00031667		 0.00007859		-0.00045819
O		14.73341764		2.51383802		9.58153661		-0.00031667		-0.00007859		 0.00045819
O		8.72595465		5.65070774		9.36711512		-0.00020844		 0.00024410		 0.00003850
O		9.61744381		1.58544011		1.51728521		 0.00020844		-0.00024410		-0.00003850
O		9.61744381		1.58544011		9.36711512		 0.00020844		-0.00024410		 0.00003850
O		8.72595465		5.65070774		1.51728521		-0.00020844		 0.00024410		-0.00003850
O		0.44574458		2.03263382		6.95948538		 0.00020844		 0.00024410		-0.00003850
O		17.89765388		5.20351403		3.92491496		-0.00020844		-0.00024410		 0.00003850
O		17.89765388		5.20351403		6.95948538		-0.00020844		-0.00024410		-0.00003850
O		0.44574458		2.03263382		3.92491496		 0.00020844		 0.00024410		 0.00003850
O		6.21712804		5.86200351		8.55731461		-0.00002416		-0.00061374		 0.00016884
O		12.12627042		1.37414433		2.32708572		 0.00002416		 0.00061374		-0.00016884
O		12.12627042		1.37414433		8.55731461		 0.00002416		 0.00061374		 0.00016884
O		6.21712804		5.86200351		2.32708572		-0.00002416		-0.00061374		-0.00016884
O		2.95457119		2.24392959		7.76928405		 0.00002416		-0.00061374		-0.00016884
O		15.38882727		4.99221826		3.11511445		-0.00002416		 0.00061374		 0.00016884
O		15.38882727		4.99221826		7.76928405		-0.00002416		 0.00061374		-0.00016884
O		2.95457119		2.24392959		3.11511445		 0.00002416		-0.00061374		 0.00016884
O		6.89711782		3.58840531		0.00000000		-0.00039462		-0.00024850		0.00000000
O		11.44628064		3.64774254		0.00000000		 0.00039462		 0.00024850		0.00000000
O		2.27458141		7.20647924		5.44220017		 0.00039462		-0.00024850		0.00000000
O		16.06881705		0.02966861		5.44220017		-0.00039462		 0.00024850		0.00000000
O		7.54830847		3.54209373		7.82697220		-0.00041414		-0.00057913		-0.00023854
O		10.79508999		3.69405228		3.05742813		 0.00041414		 0.00057913		 0.00023854
O		10.79508999		3.69405228		7.82697220		 0.00041414		 0.00057913		-0.00023854
O		7.54830847		3.54209373		3.05742813		-0.00041414		-0.00057913		 0.00023854
O		1.62339076		7.16016766		8.49962829		 0.00041414		-0.00057913		 0.00023854
O		16.72000770		0.07598019		2.38477204		-0.00041414		 0.00057913		-0.00023854
O		16.72000770		0.07598019		8.49962829		-0.00041414		 0.00057913		 0.00023854
O		1.62339076		7.16016766		2.38477204		 0.00041414		-0.00057913		-0.00023854
O		7.29700391		0.75617725		0.00000000		-0.00064752		-0.00029034		0.00000000
O		11.04639455		6.47997060		0.00000000		 0.00064752		 0.00029034		0.00000000
O		1.87469532		4.37425118		5.44220017		 0.00064752		-0.00029034		-0.00000000
O		16.46870314		2.86189667		5.44220017		-0.00064752		 0.00029034		-0.00000000
O		10.57313487		5.58485861		5.44220017		-0.00083112		 0.00018842		0.00000000
O		7.77026359		1.65128924		5.44220017		 0.00083112		-0.00018842		0.00000000
O		16.94196282		1.96678469		0.00000000		 0.00083112		 0.00018842		0.00000000
O		1.40143564		5.26936316		0.00000000		-0.00083112		-0.00018842		0.00000000
O		12.74132457		3.70924979		5.44220017		 0.00032431		 0.00030019		-0.00000000
O		5.60207389		3.52689806		5.44220017		-0.00032431		-0.00030019		-0.00000000
O		14.77377312		0.09117586		0.00000000		-0.00032431		 0.00030019		0.00000000
O		3.56962534		7.14497199		0.00000000		 0.00032431		-0.00030019		0.00000000
O		8.14997194		6.08560037		6.85281851		-0.00041009		-0.00014904		 0.00046013
O		10.19342652		1.15054748		4.03158182		 0.00041009		 0.00014904		-0.00046013
O		10.19342652		1.15054748		6.85281851		 0.00041009		 0.00014904		 0.00046013
O		8.14997194		6.08560037		4.03158182		-0.00041009		-0.00014904		-0.00046013
O		1.02172729		2.46752645		9.47378198		 0.00041009		-0.00014904		-0.00046013
O		17.32167117		4.76862140		1.41061835		-0.00041009		 0.00014904		 0.00046013
O		17.32167117		4.76862140		9.47378198		-0.00041009		 0.00014904		-0.00046013
O		1.02172729		2.46752645		1.41061835		 0.00041009		-0.00014904		 0.00046013
