# total energy = -41266.3760598 eV

CRYSTAL
PRIMVEC
		5.69780014		0.00000000		0.00000000
		0.00000000		11.46200244		1.37543756
		0.00000000		0.99085314		8.25709812
PRIMECORD
   56 1
Mg		0.00000000		0.00000000		0.00000000		0.00000000		0.00000000		0.00000000
Mg		0.00000000		5.73100008		0.68771992		0.00000000		0.00000000		0.00000000
Mg		2.84890007		6.22642608		4.81627012		0.00000000		0.00000000		0.00000000
Mg		2.84890007		0.49542600		4.12855020		0.00000000		0.00000000		0.00000000
Mg		0.00000000		3.82642834		8.35159614		0.00000000		 0.00044906		-0.00055816
Mg		0.00000000		8.62642440		1.28094410		0.00000000		-0.00044906		 0.00055816
Mg		2.84890007		9.06200242		4.91076586		0.00000000		 0.00044907		-0.00055817
Mg		2.84890007		3.39085032		4.72177495		0.00000000		-0.00044907		 0.00055817
Mg		1.42445004		1.70224115		2.23881781		-0.00012486		-0.00034402		 0.00040775
Mg		4.27335011		10.75061101		7.39372243		 0.00012486		 0.00034402		-0.00040775
Mg		4.27335011		4.52418493		2.57745231		-0.00012484		 0.00034402		-0.00040778
Mg		1.42445004		7.92866724		7.05508793		 0.00012484		-0.00034402		 0.00040778
Mg		4.27335011		7.92866724		7.05508793		-0.00012484		-0.00034402		 0.00040778
Mg		1.42445004		4.52418493		2.57745231		 0.00012484		 0.00034402		-0.00040778
Mg		1.42445004		10.75061101		7.39372243		-0.00012486		 0.00034402		-0.00040775
Mg		4.27335011		1.70224115		2.23881781		 0.00012486		-0.00034402		 0.00040775
Si		0.00000000		1.98515402		5.25541838		0.00000000		-0.00045509		 0.00000961
Si		0.00000000		10.46769814		4.37712186		0.00000000		 0.00045509		-0.00000961
Si		0.00000000		4.96756723		5.61330689		0.00000000		-0.00006558		 0.00061308
Si		0.00000000		7.48528494		4.01923335		0.00000000		 0.00006558		-0.00061308
Si		2.84890007		7.22072810		1.81458810		0.00000000		-0.00045483		 0.00000923
Si		2.84890007		5.23212406		7.81795328		0.00000000		 0.00045483		-0.00000923
Si		2.84890007		10.20314131		2.17247718		0.00000000		-0.00006566		 0.00061289
Si		2.84890007		2.24971200		7.46006306		0.00000000		 0.00006566		-0.00061289
O		0.00000000		3.08170421		2.14555906		0.00000000		-0.00048871		-0.00008895
O		0.00000000		9.37114796		7.48698118		0.00000000		 0.00048871		 0.00008895
O		2.84890007		9.30813029		6.96182918		0.00000000		-0.00048872		-0.00008899
O		2.84890007		3.14472188		2.67071106		0.00000000		 0.00048872		 0.00008899
O		0.00000000		3.57465280		6.25346613		0.00000000		-0.00059096		 0.00016366
O		0.00000000		8.87819936		3.37907411		0.00000000		 0.00059096		-0.00016366
O		2.84890007		8.81022746		2.81263585		0.00000000		-0.00059098		 0.00016371
O		2.84890007		3.64262528		6.81990439		0.00000000		 0.00059098		-0.00016371
O		0.00000000		11.59924137		3.47935710		0.00000000		 0.00002460		 0.00006678
O		0.00000000		0.85361080		6.15318314		0.00000000		-0.00002460		-0.00006678
O		0.00000000		6.10206590		2.81969600		0.00000000		-0.00024711		-0.00056739
O		0.00000000		6.35078627		6.81284424		0.00000000		 0.00024711		 0.00056739
O		2.84890007		6.36366729		6.92018738		0.00000000		 0.00002487		 0.00006653
O		2.84890007		6.08918488		2.71235286		0.00000000		-0.00002487		-0.00006653
O		2.84890007		0.86649182		6.26052628		0.00000000		-0.00024718		-0.00056750
O		2.84890007		11.58636035		3.37201396		0.00000000		 0.00024718		 0.00056750
O		1.48199782		2.38925625		8.36875506		 0.00006188		-0.00020349		-0.00053289
O		4.21580232		10.06359534		1.26378518		-0.00006188		 0.00020349		 0.00053289
O		4.21580232		5.30977425		8.71921706		-0.00045649		-0.00032931		 0.00048849
O		1.48199782		7.14307791		0.91332318		 0.00045649		 0.00032931		-0.00048849
O		4.21580232		7.14307791		0.91332318		-0.00045649		 0.00032931		-0.00048849
O		1.48199782		5.30977425		8.71921706		 0.00045649		-0.00032931		 0.00048849
O		1.48199782		10.06359534		1.26378518		 0.00006188		 0.00020349		 0.00053289
O		4.21580232		2.38925625		8.36875506		-0.00006188		-0.00020349		-0.00053289
O		4.33089789		7.62483033		4.92792535		 0.00006180		-0.00020350		-0.00053284
O		1.36690225		4.82802240		4.70461489		-0.00006180		 0.00020350		 0.00053284
O		1.36690225		10.54534833		5.27838735		-0.00045639		-0.00032930		 0.00048856
O		4.33089789		1.90750383		4.35415289		 0.00045639		 0.00032930		-0.00048856
O		1.36690225		1.90750383		4.35415289		-0.00045639		 0.00032930		-0.00048856
O		4.33089789		10.54534833		5.27838735		 0.00045639		-0.00032930		 0.00048856
O		4.33089789		4.82802240		4.70461489		 0.00006180		 0.00020350		 0.00053284
O		1.36690225		7.62483033		4.92792535		-0.00006180		-0.00020350		-0.00053284
