# total energy = -41271.0828199 eV

CRYSTAL
PRIMVEC
		5.69780014		0.00000000		0.00000000
		0.00000000		11.46200244		0.91695837
		0.00000000		0.66056876		8.25709812
PRIMECORD
   56 1
Mg		0.00000000		0.00000000		0.00000000		0.00000000		0.00000000		0.00000000
Mg		0.00000000		5.73100008		0.45847976		0.00000000		0.00000000		0.00000000
Mg		2.84890007		6.06128389		4.58702996		0.00000000		0.00000000		0.00000000
Mg		2.84890007		0.33028381		4.12855020		0.00000000		0.00000000		0.00000000
Mg		0.00000000		3.50611909		8.23697634		0.00000000		-0.00056601		 0.00003720
Mg		0.00000000		8.61644926		0.93708414		0.00000000		 0.00056601		-0.00003720
Mg		2.84890007		8.90683537		4.56690590		0.00000000		-0.00056600		 0.00003722
Mg		2.84890007		3.21573299		4.60715516		0.00000000		 0.00056600		-0.00003722
Mg		1.42445004		1.61966977		2.18063700		 0.00022643		-0.00001110		-0.00028610
Mg		4.27335011		10.50289801		6.99342291		-0.00022643		 0.00001110		 0.00028610
Mg		4.27335011		4.44161412		2.40639296		 0.00022643		 0.00001109		 0.00028610
Mg		1.42445004		7.68095424		6.76766696		-0.00022643		-0.00001109		-0.00028610
Mg		4.27335011		7.68095424		6.76766696		 0.00022643		-0.00001109		-0.00028610
Mg		1.42445004		4.44161412		2.40639296		-0.00022643		 0.00001109		 0.00028610
Mg		1.42445004		10.50289801		6.99342291		 0.00022643		 0.00001110		 0.00028610
Mg		4.27335011		1.61966977		2.18063700		-0.00022643		-0.00001110		-0.00028610
Si		0.00000000		1.78153402		5.20044600		0.00000000		 0.00015960		-0.00016674
Si		0.00000000		10.34103434		3.97361391		0.00000000		-0.00015960		 0.00016674
Si		0.00000000		4.76394608		5.43903911		0.00000000		 0.00030074		-0.00061887
Si		0.00000000		7.35862114		3.73502081		0.00000000		-0.00030074		 0.00061887
Si		2.84890007		7.18225029		1.53037613		0.00000000		 0.00015961		-0.00016676
Si		2.84890007		4.94031807		7.64368436		0.00000000		-0.00015961		 0.00016676
Si		2.84890007		10.16466235		1.76896923		0.00000000		 0.00030074		-0.00061888
Si		2.84890007		1.95790600		7.40509125		0.00000000		-0.00030074		 0.00061888
O		0.00000000		3.00963615		2.03093927		0.00000000		 0.00069997		 0.00035197
O		0.00000000		9.11293220		7.14312122		0.00000000		-0.00069997		-0.00035197
O		2.84890007		9.07092004		6.61796922		0.00000000		 0.00069996		 0.00035197
O		2.84890007		3.05164831		2.55609126		0.00000000		-0.00069996		-0.00035197
O		0.00000000		3.33826817		6.13884634		0.00000000		 0.00053341		 0.00004755
O		0.00000000		8.78429905		3.03521415		0.00000000		-0.00053341		-0.00004755
O		2.84890007		8.73898444		2.46877589		0.00000000		 0.00053341		 0.00004755
O		2.84890007		3.38358334		6.70528402		0.00000000		-0.00053341		-0.00004755
O		0.00000000		11.51452306		3.02555296		0.00000000		-0.00003452		 0.00029355
O		0.00000000		0.60804473		6.14850696		0.00000000		 0.00003452		-0.00029355
O		0.00000000		6.01734816		2.58577908		0.00000000		 0.00089042		-0.00042985
O		0.00000000		6.10522020		6.58828141		0.00000000		-0.00089042		 0.00042985
O		2.84890007		6.11380735		6.69562340		0.00000000		-0.00003451		 0.00029354
O		2.84890007		6.00876100		2.47843708		0.00000000		 0.00003451		-0.00029354
O		2.84890007		0.61663189		6.25584895		0.00000000		 0.00089041		-0.00042986
O		2.84890007		11.50593647		2.91821096		0.00000000		-0.00089041		 0.00042986
O		1.48199782		2.06125099		8.31254513		-0.00022025		 0.00014437		 0.00048751
O		4.21580232		10.06131622		0.86151479		 0.00022025		-0.00014437		-0.00048751
O		4.21580232		4.98176899		8.54618741		 0.00012549		-0.00032310		 0.00001392
O		1.48199782		7.14079936		0.62787307		-0.00012549		 0.00032310		-0.00001392
O		4.21580232		7.14079936		0.62787307		 0.00012549		 0.00032310		-0.00001392
O		1.48199782		4.98176899		8.54618741		-0.00012549		-0.00032310		 0.00001392
O		1.48199782		10.06131622		0.86151479		-0.00022025		-0.00014437		-0.00048751
O		4.21580232		2.06125099		8.31254513		 0.00022025		 0.00014437		 0.00048751
O		4.33089789		7.46196726		4.64247525		-0.00022025		 0.00014436		 0.00048751
O		1.36690225		4.66060109		4.53158523		 0.00022025		-0.00014436		-0.00048751
O		1.36690225		10.38248526		4.87611696		 0.00012549		-0.00032310		 0.00001392
O		4.33089789		1.74008309		4.29794295		-0.00012549		 0.00032310		-0.00001392
O		1.36690225		1.74008309		4.29794295		 0.00012549		 0.00032310		-0.00001392
O		4.33089789		10.38248526		4.87611696		-0.00012549		-0.00032310		 0.00001392
O		4.33089789		4.66060109		4.53158523		-0.00022025		-0.00014436		-0.00048751
O		1.36690225		7.46196726		4.64247525		 0.00022025		 0.00014436		 0.00048751
