# total energy = -41261.4126275 eV

CRYSTAL
PRIMVEC
		5.69780014		0.00000000		0.00000000
		0.00000000		11.46200244		1.83392244
		0.00000000		1.32113752		8.25709812
PRIMECORD
   56 1
Mg		0.00000000		0.00000000		0.00000000		0.00000000		0.00000000		0.00000000
Mg		0.00000000		5.73100008		0.91696008		0.00000000		0.00000000		0.00000000
Mg		2.84890007		6.39156827		5.04551028		0.00000000		0.00000000		0.00000000
Mg		2.84890007		0.66056819		4.12855020		0.00000000		0.00000000		0.00000000
Mg		0.00000000		4.14673815		8.46621593		0.00000000		 0.00027032		 0.00012535
Mg		0.00000000		8.63639840		1.62480406		0.00000000		-0.00027032		-0.00012535
Mg		2.84890007		9.21717004		5.25462639		0.00000000		 0.00027032		 0.00012536
Mg		2.84890007		3.56596594		4.83639532		0.00000000		-0.00027032		-0.00012536
Mg		1.42445004		1.78481196		2.29699918		-0.00032340		-0.00002436		 0.00037385
Mg		4.27335011		10.99832401		7.79402138		 0.00032340		 0.00002436		-0.00037385
Mg		4.27335011		4.60675631		2.74851110		-0.00032341		 0.00002436		-0.00037383
Mg		1.42445004		8.17638024		7.34251004		 0.00032341		-0.00002436		 0.00037383
Mg		4.27335011		8.17638024		7.34251004		-0.00032341		-0.00002436		 0.00037383
Mg		1.42445004		4.60675631		2.74851110		 0.00032341		 0.00002436		-0.00037383
Mg		1.42445004		10.99832401		7.79402138		-0.00032340		 0.00002436		-0.00037385
Mg		4.27335011		1.78481196		2.29699918		 0.00032340		-0.00002436		 0.00037385
Si		0.00000000		2.18877403		5.31038905		0.00000000		-0.00016218		 0.00003346
Si		0.00000000		10.59436252		4.78063095		0.00000000		 0.00016218		-0.00003346
Si		0.00000000		5.17118723		5.78757525		0.00000000		-0.00074467		 0.00090145
Si		0.00000000		7.61194932		4.30344532		0.00000000		 0.00074467		-0.00090145
Si		2.84890007		7.25920592		2.09879893		0.00000000		-0.00016237		 0.00003371
Si		2.84890007		5.52393006		7.99222107		0.00000000		 0.00016237		-0.00003371
Si		2.84890007		10.24161912		2.57598513		0.00000000		-0.00074458		 0.00090159
Si		2.84890007		2.54151686		7.51503544		0.00000000		 0.00074458		-0.00090159
O		0.00000000		3.15377226		2.26017886		0.00000000		-0.00040410		 0.00006086
O		0.00000000		9.62936429		7.83084114		0.00000000		 0.00040410		-0.00006086
O		2.84890007		9.54533997		7.30568914		0.00000000		-0.00040409		 0.00006089
O		2.84890007		3.23779601		2.78533085		0.00000000		 0.00040409		-0.00006089
O		0.00000000		3.81103687		6.36808593		0.00000000		-0.00019596		 0.00024286
O		0.00000000		8.97209911		3.72293407		0.00000000		 0.00019596		-0.00024286
O		2.84890007		8.88146933		3.15649581		0.00000000		-0.00019596		 0.00024283
O		2.84890007		3.90166722		6.93452418		0.00000000		 0.00019596		-0.00024283
O		0.00000000		11.68395911		3.93316010		0.00000000		 0.00014554		 0.00042860
O		0.00000000		1.09917687		6.15785990		0.00000000		-0.00014554		-0.00042860
O		0.00000000		6.18678421		3.05361234		0.00000000		 0.00017310		-0.00074559
O		0.00000000		6.59635234		7.03740822		0.00000000		-0.00017310		 0.00074559
O		2.84890007		6.61352722		7.14475022		0.00000000		 0.00014532		 0.00042878
O		2.84890007		6.16960933		2.94627035		0.00000000		-0.00014532		-0.00042878
O		2.84890007		1.11635175		6.26520189		0.00000000		 0.00017316		-0.00074551
O		2.84890007		11.66678423		3.82581810		0.00000000		-0.00017316		 0.00074551
O		1.48199782		2.71726094		8.42496500		 0.00087713		-0.00047343		 0.00012427
O		4.21580232		10.06587446		1.66605499		-0.00087713		 0.00047343		-0.00012427
O		4.21580232		5.63777894		8.89224729		-0.00050874		-0.00017195		 0.00002848
O		1.48199782		7.14535703		1.19877328		 0.00050874		 0.00017195		-0.00002848
O		4.21580232		7.14535703		1.19877328		-0.00050874		 0.00017195		-0.00002848
O		1.48199782		5.63777894		8.89224729		 0.00050874		-0.00017195		 0.00002848
O		1.48199782		10.06587446		1.66605499		 0.00087713		 0.00047343		-0.00012427
O		4.21580232		2.71726094		8.42496500		-0.00087713		-0.00047343		 0.00012427
O		4.33089789		7.78769397		5.21337488		 0.00087718		-0.00047343		 0.00012423
O		1.36690225		4.99544314		4.87764625		-0.00087718		 0.00047343		-0.00012423
O		1.36690225		10.70821140		5.68065717		-0.00050881		-0.00017195		 0.00002845
O		4.33089789		2.07492514		4.41036283		 0.00050881		 0.00017195		-0.00002845
O		1.36690225		2.07492514		4.41036283		-0.00050881		 0.00017195		-0.00002845
O		4.33089789		10.70821140		5.68065717		 0.00050881		-0.00017195		 0.00002845
O		4.33089789		4.99544314		4.87764625		 0.00087718		 0.00047343		-0.00012423
O		1.36690225		7.78769397		5.21337488		-0.00087718		-0.00047343		 0.00012423
