# total energy = -9075.77179525 eV	

CRYSTAL	
PRIMVEC	
		5.11310008		0.00000000		0.00000000	
		0.00000000		5.18980170		0.00000000	
		-0.00383994		0.00000000		7.33029878	
PRIMCOORD
   28 1	
Mg		3.87988016		2.66755698		1.83990509		 0.00025033		 0.00048271		 0.00074506	
Mg		1.22938202		0.07265715		5.49039420		-0.00025033		 0.00048271		-0.00074506	
Si		1.27731580		0.06746684		1.83257495		-0.00010134		-0.00047677		 0.00000905	
Si		3.83194690		2.66236718		5.49772434		 0.00010134		-0.00047677		-0.00000905	
O		1.85420490		5.07043433		3.53320431		-0.00009478		 0.00046165		 0.00066602	
O		3.25505627		2.47553399		3.79709498		 0.00009478		 0.00046165		-0.00066602	
O		4.40885184		2.85439017		7.16903212		-0.00009400		 0.00011422		-0.00010959	
O		0.70040983		0.25948983		0.16126718		 0.00009400		 0.00011422		 0.00010959	
O		4.63492194		4.16740921		5.07989714		 0.00066828		 0.00010469		-0.00006915	
O		0.47434025		1.57250888		2.25040215		-0.00066828		 0.00010469		 0.00006915	
O		2.29781695		3.43045810		5.87890033		-0.00023671		-0.00081514		 0.00034672	
O		2.81144524		0.83555776		1.45139896		 0.00023671		-0.00081514		-0.00034672	
O		4.84599122		4.35424189		2.34569602		 0.00003414		-0.00019794		-0.00039434	
O		0.26327097		1.75934206		4.98460327		-0.00003414		-0.00019794		 0.00039434	
O		1.99853084		3.65880915		1.31945388		 0.00011040		 0.00022488		 0.00005944	
O		3.11073084		1.06390881		6.01084490		-0.00011040		 0.00022488		-0.00005944	
H		2.33481023		4.16740921		3.58451580		-0.00011453		-0.00025247		 0.00018721	
H		2.77445196		1.57250888		3.74578298		 0.00011453		-0.00025247		-0.00018721	
H		4.92013526		3.62766986		7.22034412		-0.00032108		 0.00002979		-0.00022760	
H		0.18912692		1.03277003		0.10995415		 0.00032108		 0.00002979		 0.00022760	
H		1.56163791		2.83363098		5.67365129		-0.00031446		-0.00038315		-0.00000688	
H		3.54762427		0.23873115		1.65664801		 0.00031446		-0.00038315		 0.00000688	
H		3.95984700		4.93549911		5.35844912		-0.00047478		 0.00005296		 0.00006598	
H		1.14941518		2.34059979		1.97185017		 0.00047478		 0.00005296		-0.00006598	
H		4.77904131		4.42170924		3.26198298		-0.00004725		 0.00058033		-0.00065409	
H		0.33022088		1.82680993		4.06831631		 0.00004725		 0.00058033		 0.00065409	
H		2.10639424		3.59653108		0.38850613		 0.00032560		 0.00007422		 0.00012583	
H		3.00286794		1.00163125		6.94179317		-0.00032560		 0.00007422		-0.00012583	
