# total energy = -20637.727672 eV	

CRYSTAL	
PRIMVEC	
		10.20140980		0.00000000		0.00000000	
		0.00000000		5.98348390		0.00000000	
		0.00000000		0.00000000		5.11198766	
PRIMCOORD
   28 1	
Mg		0.00000000		0.00000000		0.00000000		0.00000000		0.00000000		0.00000000	
Mg		5.10070490		0.00000000		2.55599485		0.00000000		0.00000000		-0.00000000	
Mg		0.00000000		2.99173991		0.00000000		0.00000000		0.00000000		0.00000000	
Mg		5.10070490		2.99173991		2.55599485		0.00000000		0.00000000		0.00000000	
Mg		2.82885094		1.49587046		5.06853883		 0.00064197		0.00000000		 0.00023947	
Mg		7.37255886		4.48761037		0.04345188		-0.00064197		0.00000000		-0.00023947	
Mg		2.27185396		4.48761037		2.51254296		-0.00064197		0.00000000		 0.00023947	
Mg		7.92955584		1.49587046		2.59944673		 0.00064197		0.00000000		-0.00023947	
Si		0.95893252		1.49587046		2.17975257		 0.00008631		0.00000000		-0.00003275	
Si		9.24247830		4.48761037		2.93223814		-0.00008631		0.00000000		 0.00003275	
Si		4.14177340		4.48761037		4.73574742		-0.00008631		0.00000000		-0.00003275	
Si		6.05963742		1.49587046		0.37624228		 0.00008631		0.00000000		 0.00003275	
O		0.93444914		1.49587046		3.91220597		-0.00042376		0.00000000		-0.00009504	
O		9.26696066		4.48761037		1.19978373		 0.00042376		0.00000000		 0.00009504	
O		4.16625576		4.48761037		1.35621112		 0.00042376		0.00000000		-0.00009504	
O		6.03515404		1.49587046		3.75577960		-0.00042376		0.00000000		 0.00009504	
O		4.55901004		1.49587046		1.13026112		 0.00014285		0.00000000		-0.00064271	
O		5.64239976		4.48761037		3.98172960		-0.00014285		0.00000000		 0.00064271	
O		0.54169486		4.48761037		3.68625597		-0.00014285		0.00000000		-0.00064271	
O		9.65971596		1.49587046		1.42573373		 0.00014285		0.00000000		 0.00064271	
O		1.65976937		0.19865205		1.42011071		-0.00000019		 0.00028120		-0.00019761	
O		8.54164042		5.78482776		3.69188000		 0.00000019		-0.00028120		 0.00019761	
O		3.44093552		5.78482776		3.97610556		 0.00000019		-0.00028120		-0.00019761	
O		6.76047529		0.19865205		1.13588414		-0.00000019		 0.00028120		 0.00019761	
O		8.54164042		3.19039196		3.69188000		 0.00000019		 0.00028120		 0.00019761	
O		1.65976937		2.79308785		1.42011071		-0.00000019		-0.00028120		-0.00019761	
O		6.76047529		2.79308785		1.13588414		-0.00000019		-0.00028120		 0.00019761	
O		3.44093552		3.19039196		3.97610556		 0.00000019		 0.00028120		-0.00019761	
