# total energy = -9215.00396741 eV

CRYSTAL
PRIMVEC
		5.32600018		-0.21303979		0.00000000
		-2.84749901		4.71896896		0.00000000
		0.00000000		0.00000000		7.28799925
PRIMECORD
   18 1
Mg		1.76716690		-0.07068723		3.31603998		-0.00003848		 0.00031828		 0.00004002
Mg		-0.94480014		1.56575507		3.31603998		 0.00028033		 0.00010907		 0.00058557
Mg		1.65613494		3.01086292		3.31603998		-0.00016740		-0.00004363		 0.00004569
Si		-0.12299893		3.07496782		0.53931188		 0.00011817		 0.00007381		-0.00020204
Si		2.60150116		1.43096401		0.53931188		-0.00009643		 0.00002484		-0.00028596
H		3.10505820		-0.12420197		5.33481590		 0.00018933		 0.00002373		-0.00050473
H		-1.66009106		2.75115991		5.33481590		 0.00001711		 0.00001156		-0.00077261
H		1.03353510		1.87897282		5.33481590		-0.00019772		-0.00033686		-0.00034501
H		0.00000000		0.00000000		1.43573619		 0.00000061		-0.00015669		-0.00008358
O		-0.12299893		3.07496782		2.12153692		 0.00015403		 0.00002663		-0.00033431
O		2.60150116		1.43096401		2.12153692		-0.00033744		-0.00009246		-0.00030131
O		2.70028205		-0.10801077		7.22969581		 0.00052243		 0.00011051		-0.00031665
O		-1.44368201		2.39251876		7.22969581		-0.00030429		 0.00056055		-0.00012148
O		1.22190112		2.22142384		7.22969581		-0.00015124		-0.00019614		-0.00018725
O		3.53646378		-0.14145921		4.28534386		 0.00041753		-0.00017349		 0.00075456
O		-1.89073883		3.13339705		4.28534386		-0.00031060		 0.00026278		 0.00068001
O		0.83277676		1.51399292		4.28534386		-0.00011243		-0.00034046		 0.00065419
O		0.00000000		0.00000000		2.21555203		 0.00001650		-0.00018200		 0.00069488
