# total energy = -9214.23922466 eV

CRYSTAL
PRIMVEC
		5.32599843		0.42607881		0.00000000
		-2.29400252		4.39941260		0.00000000
		0.00000000		0.00000000		7.28800196
PRIMECORD
   18 1
Mg		1.76716672		0.14137300		3.31603972		-0.00068784		 0.00028610		 0.00007811
Mg		-0.76115109		1.45972478		3.31603972		 0.00070852		-0.00078176		-0.00063772
Mg		2.02597974		3.22439310		3.31603972		-0.00013484		 0.00061379		-0.00016254
Si		0.24599726		3.07496818		0.53931174		 0.00000860		-0.00006640		-0.00008072
Si		2.78599918		1.75052376		0.53931174		 0.00004230		-0.00008270		-0.00017130
H		3.10505791		0.24840483		5.33481601		 0.00008032		 0.00030707		-0.00006166
H		-1.33740391		2.56485709		5.33481601		 0.00013195		 0.00013199		 0.00041251
H		1.26434190		2.01223002		5.33481601		-0.00011349		 0.00002603		 0.00041542
H		0.00000000		0.00000000		1.43573624		-0.00014622		-0.00015649		-0.00012077
O		0.24599726		3.07496818		2.12153691		-0.00016171		 0.00006789		-0.00009483
O		2.78599918		1.75052376		2.12153691		-0.00061720		-0.00000235		 0.00001924
O		2.70028171		0.21602294		7.22969577		 0.00024863		-0.00003418		 0.00008096
O		-1.16306023		2.23050184		7.22969577		 0.00000054		-0.00003908		-0.00023265
O		1.49477389		2.37896716		7.22969577		 0.00014027		-0.00008564		 0.00015964
O		3.53646370		0.28291697		4.28534402		 0.00014621		-0.00004264		-0.00015913
O		-1.52321904		2.92120901		4.28534402		 0.00023636		-0.00001634		 0.00040457
O		1.01875124		1.62136490		4.28534402		 0.00045660		-0.00001840		 0.00006734
O		0.00000000		0.00000000		2.21555208		-0.00033900		-0.00010689		 0.00008354
