# total energy = -9215.00394455 eV

CRYSTAL
PRIMVEC
		5.32600018		0.21303979		0.00000000
		-2.47850117		4.50592916		0.00000000
		0.00000000		0.00000000		7.28799925
PRIMECORD
   18 1
Mg		1.76716690		0.07068723		3.31603998		-0.00004426		-0.00031729		 0.00002983
Mg		-0.82236676		1.49506784		3.31603998		-0.00017879		 0.00005108		 0.00005131
Mg		1.90269780		3.15321709		3.31603998		 0.00027914		-0.00009801		 0.00058756
Si		0.12299893		3.07496782		0.53931188		-0.00009760		-0.00002754		-0.00028792
Si		2.72450009		1.64400381		0.53931188		 0.00011811		-0.00007110		-0.00020886
H		3.10505820		0.12420197		5.33481590		 0.00018986		-0.00002776		-0.00054160
H		-1.44496714		2.62695794		5.33481590		-0.00019975		 0.00032736		-0.00032024
H		1.18740689		1.96781118		5.33481590		 0.00002339		-0.00001590		-0.00075228
H		0.00000000		0.00000000		1.43573619		 0.00000020		 0.00015261		-0.00007497
O		0.12299893		3.07496782		2.12153692		-0.00034076		 0.00009978		-0.00029512
O		2.72450009		1.64400381		2.12153692		 0.00015238		-0.00002043		-0.00033514
O		2.70028205		0.10801077		7.22969581		 0.00052665		-0.00011213		-0.00031351
O		-1.25660111		2.28450692		7.22969581		-0.00014681		 0.00019026		-0.00018613
O		1.40381700		2.32645286		7.22969581		-0.00030772		-0.00056350		-0.00011721
O		3.53646378		0.14145921		4.28534386		 0.00041570		 0.00017161		 0.00079973
O		-1.64572495		2.99193784		4.28534386		-0.00010288		 0.00034005		 0.00062431
O		0.95675911		1.58557511		4.28534386		-0.00031414		-0.00025334		 0.00066017
O		0.00000000		0.00000000		2.21555203		 0.00002729		 0.00017424		 0.00068008
