# total energy = -9211.37110852 eV

CRYSTAL
PRIMVEC
		5.32600180		-0.85216266		0.00000000
		-3.40099153		5.03853154		0.00000000
		0.00000000		0.00000000		7.28800235
PRIMECORD
   18 1
Mg		1.76716673		-0.28274696		3.31604010		 0.00074465		 0.00034869		 0.00024339
Mg		-1.12844899		1.67178488		3.31604010		-0.00036915		 0.00000505		-0.00004224
Mg		1.28628984		2.79733312		3.31604010		-0.00024793		-0.00027204		 0.00071624
Si		-0.49199501		3.07496789		0.53931215		-0.00015968		-0.00014848		 0.00013678
Si		2.41700312		1.11140369		0.53931215		 0.00014245		 0.00018751		 0.00008139
H		3.10505795		-0.49680893		5.33481571		-0.00016720		-0.00004401		 0.00038633
H		-1.98277886		2.93746415		5.33481571		-0.00004051		 0.00007306		 0.00056068
H		0.80272794		1.74571690		5.33481571		 0.00008158		 0.00033951		-0.00031057
H		0.00000000		0.00000000		1.43573586		 0.00006840		 0.00090370		-0.00066553
O		-0.49199501		3.07496789		2.12153718		 0.00005087		-0.00040749		-0.00006629
O		2.41700312		1.11140369		2.12153718		-0.00084441		-0.00011955		-0.00008722
O		2.70028190		-0.43204519		7.22969600		 0.00033558		-0.00005925		 0.00060522
O		-1.72430320		2.55453599		7.22969600		 0.00030895		-0.00061168		 0.00037792
O		0.94902887		2.06388078		7.22969600		-0.00025938		-0.00015878		-0.00069367
O		3.53646399		-0.56583372		4.28534404		 0.00004319		-0.00089409		-0.00029656
O		-2.25825883		3.34558486		4.28534404		-0.00027669		 0.00013723		 0.00008156
O		0.64680295		1.40662098		4.28534404		 0.00046666		 0.00046716		-0.00054505
O		0.00000000		0.00000000		2.21555172		 0.00012263		 0.00025347		-0.00048236
