# total energy = -12338.5485717 eV

CRYSTAL
PRIMVEC
		4.00040977		0.00000000		0.00000000
		0.00000000		4.66479782		0.00000000
		0.00000000		0.00000000		6.45440113
PRIMECORD
   20 1
O		0.42764380		2.21811200		1.61360008		-0.00006519		 0.00025115		-0.00000000
O		3.57276596		2.44668782		4.84079985		 0.00006519		-0.00025115		-0.00000000
O		2.42784869		0.11428811		4.84079985		-0.00006519		-0.00025115		0.00000000
O		1.57256108		4.55051291		1.61360008		 0.00006519		 0.00025115		0.00000000
O		0.75327676		0.90450505		3.62801762		 0.00003499		-0.00003078		-0.00025544
O		3.24713301		3.76029477		2.82638191		-0.00003499		 0.00003078		 0.00025544
O		2.75348164		1.42789506		2.82638191		 0.00003499		 0.00003078		 0.00025544
O		1.24692812		3.23690476		3.62801762		-0.00003499		-0.00003078		-0.00025544
O		3.24713301		3.76029477		0.40081786		-0.00003499		 0.00003078		-0.00025544
O		0.75327676		0.90450505		6.05358167		 0.00003499		-0.00003078		 0.00025544
O		1.24692812		3.23690476		6.05358167		-0.00003499		-0.00003078		 0.00025544
O		2.75348164		1.42789506		0.40081786		 0.00003499		 0.00003078		-0.00025544
Mg		2.07301194		2.71351395		1.61360008		 0.00031426		-0.00001763		0.00000000
Mg		1.92739783		1.95128587		4.84079985		-0.00031426		 0.00001763		0.00000000
Mg		0.07280706		4.28368558		4.84079985		 0.00031426		 0.00001763		-0.00000000
Mg		3.92760271		0.38111384		1.61360008		-0.00031426		-0.00001763		-0.00000000
Si		2.00020488		0.00000000		3.22719977		0.00000000		0.00000000		0.00000000
Si		0.00000000		2.33239971		3.22719977		0.00000000		0.00000000		-0.00000000
Si		2.00020488		0.00000000		0.00000000		0.00000000		0.00000000		0.00000000
Si		0.00000000		2.33239971		0.00000000		0.00000000		0.00000000		-0.00000000
