# total energy = -12344.3986416 eV

CRYSTAL
PRIMVEC
		4.22265466		0.00000000		0.00000000
		0.00000000		4.66480039		0.00000000
		0.00000000		0.00000000		6.45439944
PRIMECORD
   20 1
O		0.45140178		2.21811193		1.61360007		 0.00058803		 0.00053652		0.00000000
O		3.77125288		2.44668761		4.84079979		-0.00058803		-0.00053652		0.00000000
O		2.56272869		0.11428784		4.84079979		 0.00058803		-0.00053652		-0.00000000
O		1.65992597		4.55051255		1.61360007		-0.00058803		 0.00053652		-0.00000000
O		0.79512587		0.90450487		3.62801790		-0.00041174		 0.00035080		 0.00028712
O		3.42752879		3.76029467		2.82638196		 0.00041174		-0.00035080		-0.00028712
O		2.90645363		1.42789490		2.82638196		-0.00041174		-0.00035080		-0.00028712
O		1.31620188		3.23690465		3.62801790		 0.00041174		 0.00035080		 0.00028712
O		3.42752879		3.76029467		0.40081776		 0.00041174		-0.00035080		 0.00028712
O		0.79512587		0.90450487		6.05358168		-0.00041174		 0.00035080		-0.00028712
O		1.31620188		3.23690465		6.05358168		 0.00041174		 0.00035080		-0.00028712
O		2.90645363		1.42789490		0.40081776		-0.00041174		-0.00035080		 0.00028712
Mg		2.18817965		2.71351378		1.61360007		-0.00056680		 0.00054006		0.00000000
Mg		2.03447502		1.95128576		4.84079979		 0.00056680		-0.00054006		0.00000000
Mg		0.07685189		4.28368554		4.84079979		-0.00056680		-0.00054006		-0.00000000
Mg		4.14580277		0.38111401		1.61360007		 0.00056680		 0.00054006		-0.00000000
Si		2.11132775		0.00000000		3.22719972		-0.00000000		0.00000000		-0.00000000
Si		0.00000000		2.33239977		3.22719972		0.00000000		0.00000000		0.00000000
Si		2.11132775		0.00000000		0.00000000		-0.00000000		0.00000000		0.00000000
Si		0.00000000		2.33239977		0.00000000		-0.00000000		0.00000000		0.00000000
