# total energy = -20634.6249845 eV	

CRYSTAL	
PRIMVEC	
		10.10999973		0.00000000		0.00000000	
		0.00000000		6.05849822		0.00000000	
		0.00000000		0.00000000		4.69999733	
PRIMCOORD
   28 1	
Si		8.51261977		3.02925012		4.11343941		 0.00073644		0.00000000		-0.00085679	
Si		1.59737996		3.02925012		0.58655994		-0.00073644		0.00000000		 0.00085679	
Si		3.26148591		0.00000000		4.14727960		 0.00049357		0.00000000		 0.00040373	
Si		6.84851382		0.00000000		0.55271975		-0.00049357		0.00000000		-0.00040373	
Mg		5.05499986		3.02925012		0.00000000		0.00000000		0.00000000		0.00000000	
Mg		0.00000000		0.00000000		2.34999968		0.00000000		0.00000000		0.00000000	
Mg		0.00000000		3.02925012		2.34999968		0.00000000		0.00000000		0.00000000	
Mg		5.05499986		0.00000000		2.34999968		0.00000000		0.00000000		0.00000000	
Mg		2.50930193		1.53098253		2.34529954		 0.00026104		-0.00003025		 0.00078352	
Mg		7.60069780		4.52751669		2.35469982		-0.00026104		 0.00003025		-0.00078352	
Mg		7.60069780		1.53098253		2.35469982		-0.00026104		-0.00003025		-0.00078352	
Mg		2.50930193		4.52751669		2.34529954		 0.00026104		 0.00003025		 0.00078352	
O		3.18869391		3.02925012		0.98935042		 0.00007235		0.00000000		 0.00032562	
O		6.92130581		3.02925012		3.71064995		-0.00007235		0.00000000		-0.00032562	
O		1.66006196		3.02925012		3.64579025		-0.00006465		0.00000000		-0.00015075	
O		8.44993777		3.02925012		1.05421011		 0.00006465		0.00000000		 0.00015075	
O		8.39635477		0.00000000		1.09698047		-0.00054428		0.00000000		 0.00008869	
O		1.71364495		0.00000000		3.60301990		 0.00054428		0.00000000		-0.00008869	
O		3.36662991		0.00000000		1.08522961		-0.00067716		0.00000000		 0.00069419	
O		6.74336982		0.00000000		3.61476974		 0.00067716		0.00000000		-0.00069419	
O		0.86036098		1.57581634		1.07489012		-0.00016146		-0.00023006		 0.00037918	
O		9.24963875		4.48268390		3.62511025		 0.00016146		 0.00023006		-0.00037918	
O		9.24963875		1.57581634		3.62511025		 0.00016146		-0.00023006		-0.00037918	
O		0.86036098		4.48268390		1.07489012		-0.00016146		 0.00023006		 0.00037918	
O		5.99725184		1.38194395		1.03870036		 0.00040214		 0.00009375		-0.00017925	
O		4.11274789		4.67655629		3.66130001		-0.00040214		-0.00009375		 0.00017925	
O		4.11274789		1.38194395		3.66130001		-0.00040214		 0.00009375		 0.00017925	
O		5.99725184		4.67655629		1.03870036		 0.00040214		-0.00009375		-0.00017925	
