# total energy = -20632.385289 eV	

CRYSTAL	
PRIMVEC	
		10.10999973		0.00000000		0.00000000	
		0.00000000		5.48150031		0.00000000	
		0.00000000		0.00000000		4.69999733	
PRIMCOORD
   28 1	
Si		8.51261977		2.74075016		4.11343941		-0.00055665		-0.00000000		-0.00037921	
Si		1.59737996		2.74075016		0.58655994		 0.00055665		-0.00000000		 0.00037921	
Si		3.26148591		0.00000000		4.14727960		-0.00000747		0.00000000		 0.00023385	
Si		6.84851382		0.00000000		0.55271975		 0.00000747		0.00000000		-0.00023385	
Mg		5.05499986		2.74075016		0.00000000		0.00000000		0.00000000		0.00000000	
Mg		0.00000000		0.00000000		2.34999968		0.00000000		0.00000000		0.00000000	
Mg		0.00000000		2.74075016		2.34999968		0.00000000		0.00000000		0.00000000	
Mg		5.05499986		0.00000000		2.34999968		0.00000000		0.00000000		0.00000000	
Mg		2.50930193		1.38517511		2.34529954		-0.00019742		-0.00003086		 0.00016051	
Mg		7.60069780		4.09632521		2.35469982		 0.00019742		 0.00003086		-0.00016051	
Mg		7.60069780		1.38517511		2.35469982		 0.00019742		-0.00003086		-0.00016051	
Mg		2.50930193		4.09632521		2.34529954		-0.00019742		 0.00003086		 0.00016051	
O		3.18869391		2.74075016		0.98935042		 0.00086092		-0.00000000		-0.00003648	
O		6.92130581		2.74075016		3.71064995		-0.00086092		-0.00000000		 0.00003648	
O		1.66006196		2.74075016		3.64579025		-0.00033511		0.00000000		 0.00026310	
O		8.44993777		2.74075016		1.05421011		 0.00033511		0.00000000		-0.00026310	
O		8.39635477		0.00000000		1.09698047		 0.00039128		0.00000000		 0.00004999	
O		1.71364495		0.00000000		3.60301990		-0.00039128		0.00000000		-0.00004999	
O		3.36662991		0.00000000		1.08522961		-0.00032666		-0.00000000		 0.00082301	
O		6.74336982		0.00000000		3.61476974		 0.00032666		-0.00000000		-0.00082301	
O		0.86036098		1.42573845		1.07489012		-0.00018755		-0.00039198		 0.00061365	
O		9.24963875		4.05576186		3.62511025		 0.00018755		 0.00039198		-0.00061365	
O		9.24963875		1.42573845		3.62511025		 0.00018755		-0.00039198		-0.00061365	
O		0.86036098		4.05576186		1.07489012		-0.00018755		 0.00039198		 0.00061365	
O		5.99725184		1.25032995		1.03870036		-0.00001706		 0.00037525		-0.00033174	
O		4.11274789		4.23117036		3.66130001		 0.00001706		-0.00037525		 0.00033174	
O		4.11274789		1.25032995		3.66130001		 0.00001706		 0.00037525		 0.00033174	
O		5.99725184		4.23117036		1.03870036		-0.00001706		-0.00037525		-0.00033174	
