# total energy = -20633.3565322 eV	

CRYSTAL	
PRIMVEC	
		10.10999973		0.00000000		0.00000000	
		0.00000000		5.62574979		0.00000000	
		0.00000000		0.00000000		4.69999733	
PRIMCOORD
   28 1	
Si		8.51261977		2.81287489		4.11343941		-0.00001416		-0.00000000		-0.00045923	
Si		1.59737996		2.81287489		0.58655994		 0.00001416		-0.00000000		 0.00045923	
Si		3.26148591		0.00000000		4.14727960		-0.00041468		-0.00000000		 0.00057950	
Si		6.84851382		0.00000000		0.55271975		 0.00041468		0.00000000		-0.00057950	
Mg		5.05499986		2.81287489		0.00000000		0.00000000		0.00000000		0.00000000	
Mg		0.00000000		0.00000000		2.34999968		0.00000000		0.00000000		0.00000000	
Mg		0.00000000		2.81287489		2.34999968		0.00000000		0.00000000		0.00000000	
Mg		5.05499986		0.00000000		2.34999968		0.00000000		0.00000000		0.00000000	
Mg		2.50930193		1.42162671		2.34529954		 0.00015456		 0.00008237		 0.00048625	
Mg		7.60069780		4.20412308		2.35469982		-0.00015456		-0.00008237		-0.00048625	
Mg		7.60069780		1.42162671		2.35469982		-0.00015456		 0.00008237		-0.00048625	
Mg		2.50930193		4.20412308		2.34529954		 0.00015456		-0.00008237		 0.00048625	
O		3.18869391		2.81287489		0.98935042		 0.00037354		0.00000000		 0.00028995	
O		6.92130581		2.81287489		3.71064995		-0.00037354		0.00000000		-0.00028995	
O		1.66006196		2.81287489		3.64579025		-0.00058490		0.00000000		 0.00029497	
O		8.44993777		2.81287489		1.05421011		 0.00058490		0.00000000		-0.00029497	
O		8.39635477		0.00000000		1.09698047		 0.00029591		-0.00000000		-0.00029174	
O		1.71364495		0.00000000		3.60301990		-0.00029591		-0.00000000		 0.00029174	
O		3.36662991		0.00000000		1.08522961		-0.00018707		0.00000000		 0.00072708	
O		6.74336982		0.00000000		3.61476974		 0.00018707		0.00000000		-0.00072708	
O		0.86036098		1.46325767		1.07489012		-0.00013588		-0.00032990		 0.00014548	
O		9.24963875		4.16249212		3.62511025		 0.00013588		 0.00032990		-0.00014548	
O		9.24963875		1.46325767		3.62511025		 0.00013588		-0.00032990		-0.00014548	
O		0.86036098		4.16249212		1.07489012		-0.00013588		 0.00032990		 0.00014548	
O		5.99725184		1.28323396		1.03870036		 0.00010522		-0.00005279		-0.00019723	
O		4.11274789		4.34251583		3.66130001		-0.00010522		 0.00005279		 0.00019723	
O		4.11274789		1.28323396		3.66130001		-0.00010522		-0.00005279		 0.00019723	
O		5.99725184		4.34251583		1.03870036		 0.00010522		 0.00005279		-0.00019723	
