# total energy = -20629.2916238 eV	

CRYSTAL	
PRIMVEC	
		10.10999973		0.00000000		0.00000000	
		0.00000000		5.19300136		0.00000000	
		0.00000000		0.00000000		4.69999733	
PRIMCOORD
   28 1	
Si		8.51261977		2.59649967		4.11343941		-0.00029909		0.00000000		-0.00023012	
Si		1.59737996		2.59649967		0.58655994		 0.00029909		0.00000000		 0.00023012	
Si		3.26148591		0.00000000		4.14727960		 0.00034162		-0.00000000		-0.00052254	
Si		6.84851382		0.00000000		0.55271975		-0.00034162		-0.00000000		 0.00052254	
Mg		5.05499986		2.59649967		0.00000000		0.00000000		0.00000000		0.00000000	
Mg		0.00000000		0.00000000		2.34999968		0.00000000		0.00000000		0.00000000	
Mg		0.00000000		2.59649967		2.34999968		0.00000000		0.00000000		0.00000000	
Mg		5.05499986		0.00000000		2.34999968		0.00000000		0.00000000		0.00000000	
Mg		2.50930193		1.31227089		2.34529954		-0.00017943		-0.00003432		-0.00043240	
Mg		7.60069780		3.88072845		2.35469982		 0.00017943		 0.00003432		 0.00043240	
Mg		7.60069780		1.31227089		2.35469982		 0.00017943		-0.00003432		 0.00043240	
Mg		2.50930193		3.88072845		2.34529954		-0.00017943		 0.00003432		-0.00043240	
O		3.18869391		2.59649967		0.98935042		 0.00074519		0.00000000		-0.00063403	
O		6.92130581		2.59649967		3.71064995		-0.00074519		0.00000000		 0.00063403	
O		1.66006196		2.59649967		3.64579025		-0.00000761		0.00000000		-0.00021977	
O		8.44993777		2.59649967		1.05421011		 0.00000761		0.00000000		 0.00021977	
O		8.39635477		0.00000000		1.09698047		 0.00020743		-0.00000000		 0.00054003	
O		1.71364495		0.00000000		3.60301990		-0.00020743		-0.00000000		-0.00054003	
O		3.36662991		0.00000000		1.08522961		-0.00029405		0.00000000		 0.00039114	
O		6.74336982		0.00000000		3.61476974		 0.00029405		0.00000000		-0.00039114	
O		0.86036098		1.35069900		1.07489012		 0.00011523		-0.00001543		 0.00013547	
O		9.24963875		3.84230135		3.62511025		-0.00011523		 0.00001543		-0.00013547	
O		9.24963875		1.35069900		3.62511025		-0.00011523		-0.00001543		-0.00013547	
O		0.86036098		3.84230135		1.07489012		 0.00011523		 0.00001543		 0.00013547	
O		5.99725184		1.18452295		1.03870036		 0.00008108		 0.00017632		-0.00025883	
O		4.11274789		4.00847740		3.66130001		-0.00008108		-0.00017632		 0.00025883	
O		4.11274789		1.18452295		3.66130001		-0.00008108		 0.00017632		 0.00025883	
O		5.99725184		4.00847740		1.03870036		 0.00008108		-0.00017632		-0.00025883	
