# total energy = -20634.651297 eV	

CRYSTAL	
PRIMVEC	
		10.10999973		0.00000000		0.00000000	
		0.00000000		6.20274769		0.00000000	
		0.00000000		0.00000000		4.69999733	
PRIMCOORD
   28 1	
Si		8.51261977		3.10137486		4.11343941		 0.00051336		-0.00000000		-0.00026287	
Si		1.59737996		3.10137486		0.58655994		-0.00051336		-0.00000000		 0.00026287	
Si		3.26148591		0.00000000		4.14727960		 0.00041462		0.00000000		 0.00006613	
Si		6.84851382		0.00000000		0.55271975		-0.00041462		0.00000000		-0.00006613	
Mg		5.05499986		3.10137486		0.00000000		0.00000000		0.00000000		0.00000000	
Mg		0.00000000		0.00000000		2.34999968		0.00000000		0.00000000		0.00000000	
Mg		0.00000000		3.10137486		2.34999968		0.00000000		0.00000000		0.00000000	
Mg		5.05499986		0.00000000		2.34999968		0.00000000		0.00000000		0.00000000	
Mg		2.50930193		1.56743515		2.34529954		 0.00026004		-0.00004622		 0.00073753	
Mg		7.60069780		4.63531457		2.35469982		-0.00026004		 0.00004622		-0.00073753	
Mg		7.60069780		1.56743515		2.35469982		-0.00026004		-0.00004622		-0.00073753	
Mg		2.50930193		4.63531457		2.34529954		 0.00026004		 0.00004622		 0.00073753	
O		3.18869391		3.10137486		0.98935042		-0.00020119		0.00000000		 0.00012811	
O		6.92130581		3.10137486		3.71064995		 0.00020119		0.00000000		-0.00012811	
O		1.66006196		3.10137486		3.64579025		 0.00010709		-0.00000000		 0.00036487	
O		8.44993777		3.10137486		1.05421011		-0.00010709		-0.00000000		-0.00036487	
O		8.39635477		0.00000000		1.09698047		-0.00091392		0.00000000		 0.00000649	
O		1.71364495		0.00000000		3.60301990		 0.00091392		0.00000000		-0.00000649	
O		3.36662991		0.00000000		1.08522961		-0.00043656		0.00000000		 0.00043695	
O		6.74336982		0.00000000		3.61476974		 0.00043656		0.00000000		-0.00043695	
O		0.86036098		1.61333455		1.07489012		-0.00003486		-0.00031437		 0.00035162	
O		9.24963875		4.58941517		3.62511025		 0.00003486		 0.00031437		-0.00035162	
O		9.24963875		1.61333455		3.62511025		 0.00003486		-0.00031437		-0.00035162	
O		0.86036098		4.58941517		1.07489012		-0.00003486		 0.00031437		 0.00035162	
O		5.99725184		1.41484694		1.03870036		 0.00028995		 0.00014701		-0.00012102	
O		4.11274789		4.78790277		3.66130001		-0.00028995		-0.00014701		 0.00012102	
O		4.11274789		1.41484694		3.66130001		-0.00028995		 0.00014701		 0.00012102	
O		5.99725184		4.78790277		1.03870036		 0.00028995		-0.00014701		-0.00012102	
