# total energy = -10831.8041712 eV

CRYSTAL
PRIMVEC
		3.10780002		0.00000000		0.00000000
		-1.55390001		2.62578956		0.00000000
		0.00000000		0.00000000		14.96000139
PRIMECORD
   13 1
Mg		1.55390001		0.87526308		2.49333294		0.00000000		-0.00012501		 0.00035663
Mg		0.00000000		1.75052616		12.46666596		0.00000000		 0.00012501		-0.00035663
Mg		0.00000000		0.00000000		0.00000000		0.00000000		0.00000000		0.00000000
Mg		0.00000000		1.75052616		4.98666713		0.00000000		-0.00068552		-0.00067307
Mg		1.55390001		0.87526308		9.97333302		0.00000000		 0.00068552		 0.00067307
O		1.55390001		0.87526308		13.71333415		0.00000000		 0.00016190		 0.00044051
O		0.00000000		1.75052616		1.24666601		0.00000000		-0.00016190		-0.00044051
O		1.55390001		0.87526308		6.08872005		0.00000000		 0.00018602		 0.00021912
O		0.00000000		1.75052616		8.87128010		0.00000000		-0.00018602		-0.00021912
O		0.00000000		0.00000000		11.22299215		-0.00000000		-0.00013852		-0.00042861
O		0.00000000		0.00000000		3.73700800		-0.00000000		 0.00013852		 0.00042861
H		1.55390001		0.87526308		7.07907212		0.00000000		-0.00042136		-0.00006800
H		0.00000000		1.75052616		7.88092896		0.00000000		 0.00042136		 0.00006800
