# total energy = -2069.15501472 eV

CRYSTAL
PRIMVEC
		2.86457007		0.00000000		0.00000000
		-1.43228503		2.54439993		0.00000000
		0.00000000		0.00000000		2.67967926
PRIMECORD
   2 1
Mg		0.00000000		0.00000000		0.00000000		0.00000000		 0.00028901		0.00000000
O		0.00000000		1.69626691		1.33983991		0.00000000		-0.00028901		0.00000000
