# total energy = -2068.94789781 eV

CRYSTAL
PRIMVEC
		2.64421909		0.00000000		0.00000000
		-1.32210955		2.54439982		0.00000000
		0.00000000		0.00000000		2.67968071
PRIMECORD
   2 1
Mg		0.00000000		0.00000000		0.00000000		0.00000000		-0.00000890		0.00000000
O		0.00000000		1.69626708		1.33984009		0.00000000		 0.00000890		0.00000000
