# total energy = -9215.10907487 eV	

CRYSTAL	
PRIMVEC	
		5.32599971		0.00000000		0.00000000	
		-2.66299986		4.61244890		0.00000000	
		0.00000000		0.00000000		7.83459883	
PRIMCOORD
   18 1	
Mg		1.76716670		0.00000000		3.56474274		 0.00055867		-0.00000000		 0.00023967	
Mg		-0.88358282		1.53041110		3.56474274		-0.00027934		 0.00048383		 0.00023967	
Mg		1.77941704		3.08203993		3.56474274		-0.00027934		-0.00048383		 0.00023967	
Si		0.00000000		3.07496806		0.57976010		-0.00000000		0.00000000		-0.00023260	
Si		2.66299986		1.53748403		0.57976010		0.00000000		0.00000000		-0.00023260	
H		3.10505783		0.00000000		5.73492677		 0.00033693		-0.00000000		 0.00039791	
H		-1.55252892		2.68905891		5.73492677		-0.00016846		 0.00029178		 0.00039791	
H		1.11047094		1.92339212		5.73492677		-0.00016846		-0.00029178		 0.00039791	
H		0.00000000		0.00000000		1.54341613		-0.00000000		0.00000000		 0.00068603	
O		0.00000000		3.07496806		2.28065166		0.00000000		-0.00000000		-0.00089865	
O		2.66299986		1.53748403		2.28065166		0.00000000		0.00000000		-0.00089865	
O		2.70028185		0.00000000		7.77192247		 0.00018542		0.00000000		-0.00015987	
O		-1.35014093		2.33851279		7.77192247		-0.00009271		 0.00016058		-0.00015987	
O		1.31285893		2.27393771		7.77192247		-0.00009271		-0.00016058		-0.00015987	
O		3.53646381		0.00000000		4.60674475		 0.00089965		-0.00000000		 0.00002345	
O		-1.76823190		3.06266767		4.60674475		-0.00044983		 0.00077912		 0.00002345	
O		0.89476795		1.54978390		4.60674475		-0.00044983		-0.00077912		 0.00002345	
O		0.00000000		0.00000000		2.38171783		-0.00000000		0.00000000		 0.00007296	
