# total energy = -117592.000229 eV	

CRYSTAL	
PRIMVEC	
		10.58799967		0.00000000		0.00000000	
		0.00000000		13.03972511		0.00000000	
		-2.45393833		0.00000000		9.76951553	
PRIMCOORD
   156 1	
Si		8.18330189		0.01290889		0.72440976		-0.00004502		 0.00002990		-0.00005431	
Si		-0.04923632		13.02681516		9.04511107		 0.00004502		-0.00002990		 0.00005431	
Si		1.17773073		6.53277145		4.16035012		 0.00004502		 0.00002990		 0.00005431	
Si		6.95633484		6.50695261		5.60917070		-0.00004502		-0.00002990		-0.00005431	
Si		3.61492732		2.47285273		6.58055403		 0.00001496		 0.00031240		 0.00013928	
Si		4.51914037		10.56687132		3.18896680		-0.00001496		-0.00031240		-0.00013928	
Si		3.29217333		8.99271529		8.07372668		-0.00001496		 0.00031240		-0.00013928	
Si		4.84189437		4.04700876		1.69579309		 0.00001496		-0.00031240		 0.00013928	
Si		1.21183891		1.63648546		4.16914240		-0.00009639		-0.00019095		-0.00003844	
Si		6.92222666		11.40323965		5.60037737		 0.00009639		 0.00019095		 0.00003844	
Si		8.14919371		8.15634802		0.71561749		 0.00009639		-0.00019095		 0.00003844	
Si		-0.01512708		4.88337709		9.05390228		-0.00009639		 0.00019095		-0.00003844	
Si		6.86524205		1.60818904		5.59793578		 0.00001648		-0.00012388		 0.00009470	
Si		1.26882459		11.43153608		4.17158505		-0.00001648		 0.00012388		-0.00009470	
Si		0.04185754		8.12805159		9.05634599		-0.00001648		-0.00012388		-0.00009470	
Si		8.09220909		4.91167246		0.71317484		 0.00001648		 0.00012388		 0.00009470	
Mg		4.06703279		0.00000000		4.88475988		0.00000000		0.00000000		0.00000000	
Mg		5.29399984		6.51986256		0.00000000		0.00000000		0.00000000		0.00000000	
Mg		4.39572559		2.27556230		3.48175993		-0.00016897		 0.00015934		 0.00004707	
Mg		3.73834104		10.76416281		6.28776090		 0.00016897		-0.00015934		-0.00004707	
Mg		4.96530809		8.79542486		1.40300101		 0.00016897		 0.00015934		-0.00004707	
Mg		3.16875854		4.24430025		8.36651981		-0.00016897		-0.00015934		 0.00004707	
Mg		5.29399984		0.00000000		0.00000000		0.00000000		0.00000000		-0.00000000	
Mg		4.06703279		6.51986256		4.88475988		0.00000000		-0.00000000		0.00000000	
Mg		6.19165257		0.03246916		2.86383686		 0.00011912		-0.00002091		-0.00003590	
Mg		1.94241301		13.00725595		6.90568397		-0.00011912		 0.00002091		 0.00003590	
Mg		3.16938006		6.55233066		2.02092303		-0.00011912		-0.00002091		 0.00003590	
Mg		4.96468552		6.48739234		7.74859780		 0.00011912		 0.00002091		-0.00003590	
Mg		0.42170944		0.00456449		1.48887498		-0.00013343		-0.00025146		-0.00002647	
Mg		7.71235825		13.03516063		8.28064584		 0.00013343		 0.00025146		 0.00002647	
Mg		8.93932424		6.52442598		3.39588490		 0.00013343		-0.00025146		 0.00002647	
Mg		-0.80525761		6.51529913		6.37363593		-0.00013343		 0.00025146		-0.00002647	
Mg		-0.86838750		0.00456449		6.20091071		 0.00009906		-0.00001476		 0.00063272	
Mg		9.00245519		13.03516063		3.56861011		-0.00009906		 0.00001476		-0.00063272	
Mg		7.77548814		6.52442598		8.45337106		-0.00009906		-0.00001476		-0.00063272	
Mg		0.35857849		6.51529913		1.31614977		 0.00009906		 0.00001476		 0.00063272	
Mg		3.19404057		0.03611990		2.10484245		 0.00011708		-0.00013986		 0.00003826	
Mg		4.94002607		13.00360415		7.66467731		-0.00011708		 0.00013986		-0.00003826	
Mg		6.16699311		6.55598246		2.77991743		-0.00011708		-0.00013986		-0.00003826	
Mg		1.96707352		6.48374160		6.98960340		 0.00011708		 0.00013986		 0.00003826	
Mg		6.57114024		2.21597092		1.20761007		 0.00009196		-0.00037591		-0.00018362	
Mg		1.56292640		10.82375419		8.56190970		-0.00009196		 0.00037591		 0.00018362	
Mg		2.78989239		8.73583242		3.67714982		-0.00009196		-0.00037591		 0.00018362	
Mg		5.34417319		4.30389163		6.09237101		 0.00009196		 0.00037591		-0.00018362	
Mg		-1.63791484		2.25626355		9.47360212		-0.00004335		 0.00002628		 0.00000403	
Mg		9.77198042		10.78346050		0.29591871		 0.00004335		-0.00002628		-0.00000403	
Mg		8.54501337		8.77612611		5.18067859		 0.00004335		 0.00002628		-0.00000403	
Mg		-0.41094780		4.26359900		4.58884223		-0.00004335		-0.00002628		 0.00000403	
Mg		0.46893509		2.31063929		7.34638722		 0.00002872		-0.00002328		-0.00015717	
Mg		7.66513154		10.72908583		2.42313361		-0.00002872		 0.00002328		 0.00015717	
Mg		6.43816449		8.83050184		7.30789455		-0.00002872		-0.00002328		 0.00015717	
Mg		1.69590108		4.20922327		2.46162628		 0.00002872		 0.00002328		-0.00015717	
Mg		6.00405545		2.29407860		8.74235357		-0.00008920		 0.00006876		-0.00017967	
Mg		2.13001119		10.74564546		1.02716726		 0.00008920		-0.00006876		 0.00017967	
Mg		0.90304414		8.81394221		5.91192820		 0.00008920		 0.00006876		 0.00017967	
Mg		7.23102249		4.22578396		3.85759262		-0.00008920		-0.00006876		-0.00017967	
Mg		3.60529224		2.19810579		0.44060478		 0.00000022		-0.00007320		-0.00004914	
Mg		4.52877334		10.84161826		9.32891604		-0.00000022		 0.00007320		 0.00004914	
Mg		5.75574038		8.71796835		4.44415510		-0.00000022		-0.00007320		 0.00004914	
Mg		2.37832519		4.32175571		5.32536573		 0.00000022		 0.00007320		-0.00004914	
Mg		9.40458318		2.31455049		1.94237595		-0.00025511		 0.00000139		 0.00016688	
Mg		-1.27051655		10.72517356		7.82714488		 0.00025511		-0.00000139		-0.00016688	
Mg		-0.04354950		8.83441411		2.94238393		 0.00025511		 0.00000139		-0.00016688	
Mg		8.17761719		4.20531100		6.82713584		-0.00025511		-0.00000139		 0.00016688	
O		3.63390525		0.98058747		6.54167066		 0.00000694		 0.00009274		-0.00006087	
O		4.50016138		12.05913764		3.22785017		-0.00000694		-0.00009274		 0.00006087	
O		3.27319539		7.50045003		8.11261005		-0.00000694		 0.00009274		 0.00006087	
O		4.86087230		5.53927508		1.65691077		 0.00000694		-0.00009274		-0.00006087	
O		5.72267194		1.13315208		4.50667936		 0.00016077		-0.00010503		-0.00014114	
O		2.41139469		11.90657303		5.26284041		-0.00016077		 0.00010503		 0.00014114	
O		3.63836068		7.65301463		0.37808053		-0.00016077		-0.00010503		 0.00014114	
O		4.49570490		5.38670942		9.39144030		 0.00016077		 0.00010503		-0.00014114	
O		6.88739955		3.12953424		5.59402775		-0.00000157		 0.00020570		-0.00056388	
O		1.24666708		9.91019087		4.17549308		 0.00000157		-0.00020570		 0.00056388	
O		0.01970003		9.64939679		9.06025402		 0.00000157		 0.00020570		 0.00056388	
O		8.11436554		3.39032832		0.70926680		-0.00000157		-0.00020570		-0.00056388	
O		6.50173167		1.11880746		7.12100365		-0.00027221		-0.00031831		 0.00019097	
O		1.63233497		11.92091660		2.64851718		 0.00027221		 0.00031831		-0.00019097	
O		0.40536792		7.63867107		7.53327706		 0.00027221		-0.00031831		-0.00019097	
O		7.72869871		5.40105404		2.23624271		-0.00027221		 0.00031831		 0.00019097	
O		1.23586097		3.16213257		4.15106868		 0.00009362		 0.00028036		 0.00008146	
O		6.89820461		9.87759148		5.61845109		-0.00009362		-0.00028036		-0.00008146	
O		8.12517166		9.68199619		0.73369120		-0.00009362		 0.00028036		-0.00008146	
O		0.00889392		3.35772893		9.03582963		 0.00009362		-0.00028036		 0.00008146	
O		2.73335141		1.14097555		3.75345012		 0.00001294		-0.00008663		-0.00013567	
O		5.40071417		11.89874850		6.01607071		-0.00001294		 0.00008663		 0.00013567	
O		6.62768122		7.66083811		1.13130977		-0.00001294		-0.00008663		 0.00013567	
O		1.50638648		5.37888701		8.63821000		 0.00001294		 0.00008663		-0.00013567	
O		0.80050677		1.13575990		5.68195261		-0.00016187		-0.00015507		-0.00024745	
O		7.33355880		11.90396415		4.08756715		 0.00016187		 0.00015507		 0.00024745	
O		6.10659175		7.65562246		8.97232810		 0.00016187		-0.00015507		 0.00024745	
O		2.02747382		5.38410265		0.79719273		-0.00016187		 0.00015507		-0.00024745	
O		0.07524997		1.14880008		3.09791530		 0.00008664		-0.00002494		 0.00006493	
O		8.05881560		11.89092503		6.67160553		-0.00008664		 0.00002494		-0.00006493	
O		9.28578265		7.66866264		1.78684459		-0.00008664		-0.00002494		-0.00006493	
O		-1.15171602		5.37106247		7.98267518		 0.00008664		 0.00002494		 0.00006493	
O		3.98348606		3.14648563		5.17100646		-0.00010702		 0.00005656		 0.00009388	
O		4.15057952		9.89323949		4.59851437		 0.00010702		-0.00005656		-0.00009388	
O		2.92361247		9.66634818		9.48327320		 0.00010702		 0.00005656		-0.00009388	
O		5.21045311		3.37337693		0.28624657		-0.00010702		-0.00005656		 0.00009388	
O		4.65489441		3.11127841		7.61534147		-0.00004948		 0.00039625		-0.00009887	
O		3.47917116		9.92844564		2.15417936		 0.00004948		-0.00039625		 0.00009887	
O		2.25220517		9.63114097		7.03894030		 0.00004948		 0.00039625		 0.00009887	
O		5.88186146		3.40858415		2.73058053		-0.00004948		-0.00039625		-0.00009887	
O		4.87379495		1.10968060		1.68133411		 0.00008737		-0.00002111		 0.00013511	
O		3.26027062		11.93004451		8.08818566		-0.00008737		 0.00002111		-0.00013511	
O		4.48723767		7.62954316		3.20342577		-0.00008737		-0.00002111		-0.00013511	
O		3.64682896		5.41018196		6.56609506		 0.00008737		 0.00002111		 0.00013511	
O		4.67919493		0.97015618		9.47448092		-0.00009022		 0.00005829		 0.00011174	
O		3.45487170		12.06956894		0.29503990		 0.00009022		-0.00005829		-0.00011174	
O		2.22790466		7.49001767		5.17979979		 0.00009022		 0.00005829		-0.00011174	
O		5.90616198		5.54970638		4.58972104		-0.00009022		-0.00005829		 0.00011174	
O		7.85626399		0.98710650		2.14147905		 0.00002669		 0.00008694		 0.00033007	
O		0.27780158		12.05261755		7.62804178		-0.00002669		-0.00008694		-0.00033007	
O		1.50476863		7.50697012		2.74328083		-0.00002669		 0.00008694		-0.00033007	
O		6.62929800		5.53275605		7.02623999		 0.00002669		-0.00008694		 0.00033007	
O		-1.10338921		0.93103563		8.03054564		 0.00012638		-0.00017556		-0.00017995	
O		9.23745584		12.10868842		1.73897412		-0.00012638		 0.00017556		 0.00017995	
O		8.01048880		7.45089925		6.62373507		-0.00012638		-0.00017556		 0.00017995	
O		0.12357784		5.58882586		3.14578576		 0.00012638		 0.00017556		-0.00017995	
O		9.65343718		1.03796173		0.27257005		-0.00019506		-0.00039880		 0.00011301	
O		-1.51937054		12.00176233		9.49695078		 0.00019506		 0.00039880		-0.00011301	
O		-0.29240349		7.55782428		4.61219089		 0.00019506		-0.00039880		-0.00011301	
O		8.42647013		5.48189977		5.15732994		-0.00019506		 0.00039880		 0.00011301	
O		1.35807613		0.95711599		8.63430303		 0.00000472		 0.00009201		-0.00011667	
O		6.77599050		12.08260912		1.13521780		-0.00000472		-0.00009201		 0.00011667	
O		5.54902345		7.47697855		6.01997768		-0.00000472		 0.00009201		 0.00011667	
O		2.58504318		5.56274656		3.74954209		 0.00000472		-0.00009201		-0.00011667	
O		2.03629998		0.95059590		0.69461301		 0.00003191		-0.00010828		 0.00005662	
O		6.09776666		12.08912815		9.07490781		-0.00003191		 0.00010828		-0.00005662	
O		7.32473264		7.47045740		4.19014793		-0.00003191		-0.00010828		-0.00005662	
O		0.80933293		5.56926665		5.57937290		 0.00003191		 0.00010828		 0.00005662	
O		2.21259335		3.11910188		6.99009150		-0.00001229		-0.00004053		 0.00004389	
O		5.92147434		9.92062217		2.77942932		 0.00001229		 0.00004053		-0.00004389	
O		4.69450729		9.63896444		7.66418921		 0.00001229		-0.00004053		-0.00004389	
O		3.43956040		3.40075961		2.10533162		-0.00001229		 0.00004053		 0.00004389	
O		8.35511654		1.11098504		5.16319145		-0.00041358		 0.00031478		-0.00007998	
O		-0.22104990		11.92874007		4.60632937		 0.00041358		-0.00031478		 0.00007998	
O		-1.44801695		7.63084654		9.49108820		 0.00041358		 0.00031478		 0.00007998	
O		9.58208359		5.40887751		0.27843157		-0.00041358		-0.00031478		-0.00007998	
O		-0.84821948		3.22994024		6.22220742		 0.00002705		 0.00006409		-0.00008240	
O		8.98228717		9.80978593		3.54731341		-0.00002705		-0.00006409		 0.00008240	
O		7.75532012		9.74980174		8.43207224		-0.00002705		 0.00006409		 0.00008240	
O		0.37874651		3.28992338		1.33744647		 0.00002705		-0.00006409		-0.00008240	
O		8.86703150		3.23515589		3.55512841		-0.00019998		 0.00027305		-0.00012424	
O		-0.73296592		9.80456922		6.21439135		 0.00019998		-0.00027305		 0.00012424	
O		0.49400112		9.75501739		1.32963147		 0.00019998		 0.00027305		 0.00012424	
O		7.64006445		3.28470667		8.43988830		-0.00019998		-0.00027305		-0.00012424	
H		-1.20765983		2.51666694		5.86171250		-0.00061386		 0.00005491		 0.00053608	
H		9.34172647		10.52305818		3.90780833		 0.00061386		-0.00005491		-0.00053608	
H		8.11475942		9.03652949		8.79256822		 0.00061386		 0.00005491		-0.00053608	
H		0.01930722		4.00319456		0.97695155		-0.00061386		-0.00005491		 0.00053608	
H		8.69894806		2.66010363		4.06412109		-0.00028983		-0.00032343		 0.00019196	
H		-0.56488143		10.37962043		5.70539974		 0.00028983		 0.00032343		-0.00019196	
H		0.66208562		9.17996618		0.82063986		 0.00028983		-0.00032343		-0.00019196	
H		7.47198101		3.85975893		8.94888097		-0.00028983		 0.00032343		 0.00019196	
