# total energy = -117600.793119 eV	

CRYSTAL	
PRIMVEC	
		10.58799967		0.00000000		0.00000000	
		0.00000000		14.80185413		0.00000000	
		-2.45393833		0.00000000		9.76951553	
PRIMCOORD
   156 1	
Si		8.18330189		0.01465379		0.72440976		 0.00003321		-0.00013216		 0.00010916	
Si		-0.04923632		14.78719611		9.04511107		-0.00003321		 0.00013216		-0.00010916	
Si		1.17773073		7.41557874		4.16035012		-0.00003321		-0.00013216		-0.00010916	
Si		6.95633484		7.38627116		5.60917070		 0.00003321		 0.00013216		 0.00010916	
Si		3.61492732		2.80702271		6.58055403		 0.00006380		 0.00003546		-0.00009880	
Si		4.51914037		11.99482613		3.18896680		-0.00006380		-0.00003546		 0.00009880	
Si		3.29217333		10.20794766		8.07372668		-0.00006380		 0.00003546		 0.00009880	
Si		4.84189437		4.59390224		1.69579309		 0.00006380		-0.00003546		-0.00009880	
Si		1.21183891		1.85763172		4.16914240		-0.00018503		 0.00005221		 0.00002150	
Si		6.92222666		12.94421712		5.60037737		 0.00018503		-0.00005221		-0.00002150	
Si		8.14919371		9.25855667		0.71561749		 0.00018503		 0.00005221		-0.00002150	
Si		-0.01512708		5.54329323		9.05390228		-0.00018503		-0.00005221		 0.00002150	
Si		6.86524205		1.82551196		5.59793578		 0.00015157		 0.00017765		 0.00012201	
Si		1.26882459		12.97633793		4.17158505		-0.00015157		-0.00017765		-0.00012201	
Si		0.04185754		9.22643691		9.05634599		-0.00015157		 0.00017765		-0.00012201	
Si		8.09220909		5.57541299		0.71317484		 0.00015157		-0.00017765		 0.00012201	
Mg		4.06703279		0.00000000		4.88475988		0.00000000		0.00000000		0.00000000	
Mg		5.29399984		7.40092495		0.00000000		0.00000000		0.00000000		-0.00000000	
Mg		4.39572559		2.58307063		3.48175993		 0.00001295		 0.00011471		-0.00033021	
Mg		3.73834104		12.21877820		6.28776090		-0.00001295		-0.00011471		 0.00033021	
Mg		4.96530809		9.98399558		1.40300101		-0.00001295		 0.00011471		 0.00033021	
Mg		3.16875854		4.81785431		8.36651981		 0.00001295		-0.00011471		-0.00033021	
Mg		5.29399984		0.00000000		0.00000000		0.00000000		0.00000000		0.00000000	
Mg		4.06703279		7.40092495		4.88475988		0.00000000		0.00000000		0.00000000	
Mg		6.19165257		0.03685683		2.86383686		 0.00002706		-0.00011835		-0.00001020	
Mg		1.94241301		14.76499307		6.90568397		-0.00002706		 0.00011835		 0.00001020	
Mg		3.16938006		7.43778072		2.02092303		-0.00002706		-0.00011835		 0.00001020	
Mg		4.96468552		7.36406812		7.74859780		 0.00002706		 0.00011835		-0.00001020	
Mg		0.42170944		0.00518071		1.48887498		 0.00000576		-0.00022641		-0.00021932	
Mg		7.71235825		14.79666919		8.28064584		-0.00000576		 0.00022641		 0.00021932	
Mg		8.93932424		7.40610566		3.39588490		-0.00000576		-0.00022641		 0.00021932	
Mg		-0.80525761		7.39574424		6.37363593		 0.00000576		 0.00022641		-0.00021932	
Mg		-0.86838750		0.00518071		6.20091071		-0.00002848		 0.00028612		-0.00012368	
Mg		9.00245519		14.79666919		3.56861011		 0.00002848		-0.00028612		 0.00012368	
Mg		7.77548814		7.40610566		8.45337106		 0.00002848		 0.00028612		 0.00012368	
Mg		0.35857849		7.39574424		1.31614977		-0.00002848		-0.00028612		-0.00012368	
Mg		3.19404057		0.04100097		2.10484245		 0.00003260		-0.00031287		-0.00017544	
Mg		4.94002607		14.76084893		7.66467731		-0.00003260		 0.00031287		 0.00017544	
Mg		6.16699311		7.44192592		2.77991743		-0.00003260		-0.00031287		 0.00017544	
Mg		1.96707352		7.35992398		6.98960340		 0.00003260		 0.00031287		-0.00017544	
Mg		6.57114024		2.51542602		1.20761007		-0.00043235		-0.00028875		-0.00001225	
Mg		1.56292640		12.28642388		8.56190970		 0.00043235		 0.00028875		 0.00001225	
Mg		2.78989239		9.91635097		3.67714982		 0.00043235		-0.00028875		 0.00001225	
Mg		5.34417319		4.88549893		6.09237101		-0.00043235		 0.00028875		-0.00001225	
Mg		-1.63791484		2.56116406		9.47360212		 0.00011491		-0.00028352		 0.00002898	
Mg		9.77198042		12.24068583		0.29591871		-0.00011491		 0.00028352		-0.00002898	
Mg		8.54501337		9.96208901		5.18067859		-0.00011491		-0.00028352		-0.00002898	
Mg		-0.41094780		4.83976089		4.58884223		 0.00011491		 0.00028352		 0.00002898	
Mg		0.46893509		2.62288787		7.34638722		-0.00015101		 0.00018231		 0.00004101	
Mg		7.66513154		12.17896203		2.42313361		 0.00015101		-0.00018231		-0.00004101	
Mg		6.43816449		10.02381282		7.30789455		 0.00015101		 0.00018231		-0.00004101	
Mg		1.69590108		4.77803708		2.46162628		-0.00015101		-0.00018231		 0.00004101	
Mg		6.00405545		2.60408887		8.74235357		-0.00009056		-0.00040268		 0.00036242	
Mg		2.13001119		12.19775997		1.02716726		 0.00009056		 0.00040268		-0.00036242	
Mg		0.90304414		10.00501488		5.91192820		 0.00009056		-0.00040268		-0.00036242	
Mg		7.23102249		4.79683608		3.85759262		-0.00009056		 0.00040268		 0.00036242	
Mg		3.60529224		2.49514789		0.44060478		 0.00017541		-0.00003012		-0.00002143	
Mg		4.52877334		12.30670307		9.32891604		-0.00017541		 0.00003012		 0.00002143	
Mg		5.75574038		9.89607283		4.44415510		-0.00017541		-0.00003012		 0.00002143	
Mg		2.37832519		4.90577706		5.32536573		 0.00017541		 0.00003012		-0.00002143	
Mg		9.40458318		2.62732741		1.94237595		-0.00002415		-0.00061545		-0.00004669	
Mg		-1.27051655		12.17452142		7.82714488		 0.00002415		 0.00061545		 0.00004669	
Mg		-0.04354950		10.02825342		2.94238393		 0.00002415		-0.00061545		 0.00004669	
Mg		8.17761719		4.77359648		6.82713584		-0.00002415		 0.00061545		-0.00004669	
O		3.63390525		1.11309946		6.54167066		-0.00008388		-0.00029537		 0.00030772	
O		4.50016138		13.68875043		3.22785017		 0.00008388		 0.00029537		-0.00030772	
O		3.27319539		8.51402441		8.11261005		 0.00008388		-0.00029537		-0.00030772	
O		4.86087230		6.28782548		1.65691077		-0.00008388		 0.00029537		 0.00030772	
O		5.72267194		1.28628102		4.50667936		 0.00006047		-0.00016648		 0.00018777	
O		2.41139469		13.51556888		5.26284041		-0.00006047		 0.00016648		-0.00018777	
O		3.63836068		8.68720597		0.37808053		-0.00006047		-0.00016648		-0.00018777	
O		4.49570490		6.11464393		9.39144030		 0.00006047		 0.00016648		 0.00018777	
O		6.88739955		3.55244436		5.59402775		-0.00027792		 0.00001205		 0.00013317	
O		1.24666708		11.24940554		4.17549308		 0.00027792		-0.00001205		-0.00013317	
O		0.01970003		10.95336825		9.06025402		 0.00027792		 0.00001205		-0.00013317	
O		8.11436554		3.84848059		0.70926680		-0.00027792		-0.00001205		 0.00013317	
O		6.50173167		1.26999880		7.12100365		-0.00000555		 0.00002768		 0.00013184	
O		1.63233497		13.53185110		2.64851718		 0.00000555		-0.00002768		-0.00013184	
O		0.40536792		8.67092375		7.53327706		 0.00000555		 0.00002768		-0.00013184	
O		7.72869871		6.13092615		2.23624271		-0.00000555		-0.00002768		 0.00013184	
O		1.23586097		3.58944942		4.15106868		-0.00000173		-0.00001679		 0.00017539	
O		6.89820461		11.21240048		5.61845109		 0.00000173		 0.00001679		-0.00017539	
O		8.12517166		10.99037331		0.73369120		 0.00000173		-0.00001679		-0.00017539	
O		0.00889392		3.81147553		9.03582963		-0.00000173		 0.00001679		 0.00017539	
O		2.73335141		1.29516224		3.75345012		-0.00025899		-0.00026152		-0.00016484	
O		5.40071417		13.50668872		6.01607071		 0.00025899		 0.00026152		 0.00016484	
O		6.62768122		8.69608719		1.13130977		 0.00025899		-0.00026152		 0.00016484	
O		1.50638648		6.10576271		8.63821000		-0.00025899		 0.00026152		-0.00016484	
O		0.80050677		1.28924143		5.68195261		-0.00013992		-0.00007472		 0.00012662	
O		7.33355880		13.51260847		4.08756715		 0.00013992		 0.00007472		-0.00012662	
O		6.10659175		8.69016638		8.97232810		 0.00013992		-0.00007472		-0.00012662	
O		2.02747382		6.11168352		0.79719273		-0.00013992		 0.00007472		 0.00012662	
O		0.07524997		1.30404345		3.09791530		 0.00003775		-0.00051031		 0.00010500	
O		8.05881560		13.49780645		6.67160553		-0.00003775		 0.00051031		-0.00010500	
O		9.28578265		8.70496734		1.78684459		-0.00003775		-0.00051031		-0.00010500	
O		-1.15171602		6.09688150		7.98267518		 0.00003775		 0.00051031		 0.00010500	
O		3.98348606		3.57168593		5.17100646		-0.00001876		 0.00058823		 0.00002930	
O		4.15057952		11.23016397		4.59851437		 0.00001876		-0.00058823		-0.00002930	
O		2.92361247		10.97261088		9.48327320		 0.00001876		 0.00058823		-0.00002930	
O		5.21045311		3.82923902		0.28624657		-0.00001876		-0.00058823		 0.00002930	
O		4.65489441		3.53172047		7.61534147		-0.00031862		 0.00040108		 0.00004756	
O		3.47917116		11.27012732		2.15417936		 0.00031862		-0.00040108		-0.00004756	
O		2.25220517		10.93264647		7.03894030		 0.00031862		 0.00040108		-0.00004756	
O		5.88186146		3.86920237		2.73058053		-0.00031862		-0.00040108		 0.00004756	
O		4.87379495		1.25963738		1.68133411		-0.00002986		 0.00016499		-0.00031919	
O		3.26027062		13.54221252		8.08818566		 0.00002986		-0.00016499		 0.00031919	
O		4.48723767		8.66056127		3.20342577		 0.00002986		 0.00016499		 0.00031919	
O		3.64682896		6.14128757		6.56609506		-0.00002986		-0.00016499		-0.00031919	
O		4.67919493		1.10125785		9.47448092		 0.00001311		-0.00007694		 0.00011026	
O		3.45487170		13.70059205		0.29503990		-0.00001311		 0.00007694		-0.00011026	
O		2.22790466		8.50218280		5.17979979		-0.00001311		-0.00007694		-0.00011026	
O		5.90616198		6.29966710		4.58972104		 0.00001311		 0.00007694		 0.00011026	
O		7.85626399		1.12050048		2.14147905		-0.00009171		-0.00015954		 0.00014709	
O		0.27780158		13.68134942		7.62804178		 0.00009171		 0.00015954		-0.00014709	
O		1.50476863		8.52142437		2.74328083		 0.00009171		-0.00015954		-0.00014709	
O		6.62929800		6.28042447		7.02623999		-0.00009171		 0.00015954		 0.00014709	
O		-1.10338921		1.05685178		8.03054564		-0.00035605		-0.00015402		 0.00018623	
O		9.23745584		13.74499706		1.73897412		 0.00035605		 0.00015402		-0.00018623	
O		8.01048880		8.45777672		6.62373507		 0.00035605		-0.00015402		-0.00018623	
O		0.12357784		6.34407317		3.14578576		-0.00035605		 0.00015402		 0.00018623	
O		9.65343718		1.17822731		0.27257005		 0.00011278		-0.00038078		 0.00029014	
O		-1.51937054		13.62362259		9.49695078		-0.00011278		 0.00038078		-0.00029014	
O		-0.29240349		8.57915226		4.61219089		-0.00011278		-0.00038078		-0.00029014	
O		8.42647013		6.22269764		5.15732994		 0.00011278		 0.00038078		 0.00029014	
O		1.35807613		1.08645582		8.63430303		-0.00008783		-0.00024835		 0.00023254	
O		6.77599050		13.71539408		1.13521780		 0.00008783		 0.00024835		-0.00023254	
O		5.54902345		8.48738077		6.01997768		 0.00008783		-0.00024835		-0.00023254	
O		2.58504318		6.31446913		3.74954209		-0.00008783		 0.00024835		 0.00023254	
O		2.03629998		1.07905481		0.69461301		-0.00003350		-0.00002276		-0.00009775	
O		6.09776666		13.72279509		9.07490781		 0.00003350		 0.00002276		 0.00009775	
O		7.32473264		8.47997976		4.19014793		 0.00003350		-0.00002276		 0.00009775	
O		0.80933293		6.32187014		5.57937290		-0.00003350		 0.00002276		-0.00009775	
O		2.21259335		3.54060168		6.99009150		 0.00010425		 0.00010750		 0.00000083	
O		5.92147434		11.26124716		2.77942932		-0.00010425		-0.00010750		-0.00000083	
O		4.69450729		10.94152769		7.66418921		-0.00010425		 0.00010750		-0.00000083	
O		3.43956040		3.86032327		2.10533162		 0.00010425		-0.00010750		 0.00000083	
O		8.35511654		1.26111758		5.16319145		-0.00001243		-0.00053599		 0.00027022	
O		-0.22104990		13.54073126		4.60632937		 0.00001243		 0.00053599		-0.00027022	
O		-1.44801695		8.66204253		9.49108820		 0.00001243		-0.00053599		-0.00027022	
O		9.58208359		6.13980631		0.27843157		-0.00001243		 0.00053599		 0.00027022	
O		-0.84821948		3.66641782		6.22220742		-0.00005237		 0.00016257		 0.00010843	
O		8.98228717		11.13543208		3.54731341		 0.00005237		-0.00016257		-0.00010843	
O		7.75532012		11.06734277		8.43207224		 0.00005237		 0.00016257		-0.00010843	
O		0.37874651		3.73450713		1.33744647		-0.00005237		-0.00016257		 0.00010843	
O		8.86703150		3.67233863		3.55512841		-0.00016872		 0.00002871		-0.00020457	
O		-0.73296592		11.12951021		6.21439135		 0.00016872		-0.00002871		 0.00020457	
O		0.49400112		11.07326358		1.32963147		 0.00016872		 0.00002871		 0.00020457	
O		7.64006445		3.72858632		8.43988830		-0.00016872		-0.00002871		-0.00020457	
H		-1.20765983		2.85675666		5.86171250		-0.00033203		 0.00021223		 0.00037807	
H		9.34172647		11.94509218		3.90780833		 0.00033203		-0.00021223		-0.00037807	
H		8.11475942		10.25768161		8.79256822		 0.00033203		 0.00021223		-0.00037807	
H		0.01930722		4.54416829		0.97695155		-0.00033203		-0.00021223		 0.00037807	
H		8.69894806		3.01957680		4.06412109		 0.00007520		-0.00093224		 0.00008377	
H		-0.56488143		11.78227310		5.70539974		-0.00007520		 0.00093224		-0.00008377	
H		0.66208562		10.42050175		0.82063986		-0.00007520		-0.00093224		-0.00008377	
H		7.47198101		4.38134815		8.94888097		 0.00007520		 0.00093224		 0.00008377	
