# total energy = -117601.318394 eV	

CRYSTAL	
PRIMVEC	
		10.58799967		0.00000000		0.00000000	
		0.00000000		13.74457884		0.00000000	
		-2.45393833		0.00000000		9.76951553	
PRIMCOORD
   156 1	
Si		8.18330189		0.01360664		0.72440976		 0.00003177		 0.00005508		 0.00003484	
Si		-0.04923632		13.73096796		9.04511107		-0.00003177		-0.00005508		-0.00003484	
Si		1.17773073		6.88589394		4.16035012		-0.00003177		 0.00005508		-0.00003484	
Si		6.95633484		6.85867960		5.60917070		 0.00003177		-0.00005508		 0.00003484	
Si		3.61492732		2.60652094		6.58055403		-0.00011632		 0.00009667		 0.00007341	
Si		4.51914037		11.13805367		3.18896680		 0.00011632		-0.00009667		-0.00007341	
Si		3.29217333		9.47880824		8.07372668		 0.00011632		 0.00009667		-0.00007341	
Si		4.84189437		4.26576637		1.69579309		-0.00011632		-0.00009667		 0.00007341	
Si		1.21183891		1.72494397		4.16914240		-0.00007055		 0.00003155		 0.00000359	
Si		6.92222666		12.01963064		5.60037737		 0.00007055		-0.00003155		-0.00000359	
Si		8.14919371		8.59723021		0.71561749		 0.00007055		 0.00003155		-0.00000359	
Si		-0.01512708		5.14734333		9.05390228		-0.00007055		-0.00003155		 0.00000359	
Si		6.86524205		1.69511757		5.59793578		-0.00014061		 0.00002249		-0.00017619	
Si		1.26882459		12.04945703		4.17158505		 0.00014061		-0.00002249		 0.00017619	
Si		0.04185754		8.56740593		9.05634599		 0.00014061		 0.00002249		 0.00017619	
Si		8.09220909		5.17716867		0.71317484		-0.00014061		-0.00002249		-0.00017619	
Mg		4.06703279		0.00000000		4.88475988		0.00000000		0.00000000		0.00000000	
Mg		5.29399984		6.87228730		0.00000000		0.00000000		0.00000000		0.00000000	
Mg		4.39572559		2.39856627		3.48175993		-0.00032042		 0.00000180		 0.00031215	
Mg		3.73834104		11.34600833		6.28776090		 0.00032042		-0.00000180		-0.00031215	
Mg		4.96530809		9.27085251		1.40300101		 0.00032042		 0.00000180		-0.00031215	
Mg		3.16875854		4.47372209		8.36651981		-0.00032042		-0.00000180		 0.00031215	
Mg		5.29399984		0.00000000		0.00000000		0.00000000		0.00000000		-0.00000000	
Mg		4.06703279		6.87228730		4.88475988		0.00000000		-0.00000000		0.00000000	
Mg		6.19165257		0.03422359		2.86383686		 0.00026742		-0.00017521		 0.00025006	
Mg		1.94241301		13.71035101		6.90568397		-0.00026742		 0.00017521		-0.00025006	
Mg		3.16938006		6.90651089		2.02092303		-0.00026742		-0.00017521		-0.00025006	
Mg		4.96468552		6.83806265		7.74859780		 0.00026742		 0.00017521		 0.00025006	
Mg		0.42170944		0.00481119		1.48887498		-0.00009705		-0.00023395		 0.00000273	
Mg		7.71235825		13.73976447		8.28064584		 0.00009705		 0.00023395		-0.00000273	
Mg		8.93932424		6.87709743		3.39588490		 0.00009705		-0.00023395		-0.00000273	
Mg		-0.80525761		6.86747717		6.37363593		-0.00009705		 0.00023395		 0.00000273	
Mg		-0.86838750		0.00481119		6.20091071		 0.00005508		 0.00011886		 0.00043404	
Mg		9.00245519		13.73976447		3.56861011		-0.00005508		-0.00011886		-0.00043404	
Mg		7.77548814		6.87709743		8.45337106		-0.00005508		 0.00011886		-0.00043404	
Mg		0.35857849		6.86747717		1.31614977		 0.00005508		-0.00011886		 0.00043404	
Mg		3.19404057		0.03807233		2.10484245		 0.00010100		-0.00014673		-0.00004685	
Mg		4.94002607		13.70650227		7.66467731		-0.00010100		 0.00014673		 0.00004685	
Mg		6.16699311		6.91035963		2.77991743		-0.00010100		-0.00014673		 0.00004685	
Mg		1.96707352		6.83421497		6.98960340		 0.00010100		 0.00014673		-0.00004685	
Mg		6.57114024		2.33575296		1.20761007		 0.00040419		-0.00012006		-0.00015889	
Mg		1.56292640		11.40882164		8.56190970		-0.00040419		 0.00012006		 0.00015889	
Mg		2.78989239		9.20804026		3.67714982		-0.00040419		-0.00012006		 0.00015889	
Mg		5.34417319		4.53653434		6.09237101		 0.00040419		 0.00012006		-0.00015889	
Mg		-1.63791484		2.37822355		9.47360212		-0.00011073		 0.00014914		-0.00014468	
Mg		9.77198042		11.36635106		0.29591871		 0.00011073		-0.00014914		 0.00014468	
Mg		8.54501337		9.25051191		5.18067859		 0.00011073		 0.00014914		 0.00014468	
Mg		-0.41094780		4.49406270		4.58884223		-0.00011073		-0.00014914		-0.00014468	
Mg		0.46893509		2.43553851		7.34638722		 0.00015048		 0.00001909		-0.00002468	
Mg		7.66513154		11.30903610		2.42313361		-0.00015048		-0.00001909		 0.00002468	
Mg		6.43816449		9.30782687		7.30789455		-0.00015048		 0.00001909		 0.00002468	
Mg		1.69590108		4.43674880		2.46162628		 0.00015048		-0.00001909		-0.00002468	
Mg		6.00405545		2.41808313		8.74235357		-0.00005698		 0.00009195		-0.00025022	
Mg		2.13001119		11.32649147		1.02716726		 0.00005698		-0.00009195		 0.00025022	
Mg		0.90304414		9.29037043		5.91192820		 0.00005698		 0.00009195		 0.00025022	
Mg		7.23102249		4.45420523		3.85759262		-0.00005698		-0.00009195		-0.00025022	
Mg		3.60529224		2.31692326		0.44060478		-0.00017885		-0.00012426		 0.00000882	
Mg		4.52877334		11.42765134		9.32891604		 0.00017885		 0.00012426		-0.00000882	
Mg		5.75574038		9.18920951		4.44415510		 0.00017885		-0.00012426		-0.00000882	
Mg		2.37832519		4.55536510		5.32536573		-0.00017885		 0.00012426		 0.00000882	
Mg		9.40458318		2.43966147		1.94237595		 0.00008719		 0.00019092		 0.00022216	
Mg		-1.27051655		11.30491313		7.82714488		-0.00008719		-0.00019092		-0.00022216	
Mg		-0.04354950		9.31194983		2.94238393		-0.00008719		 0.00019092		-0.00022216	
Mg		8.17761719		4.43262477		6.82713584		 0.00008719		-0.00019092		 0.00022216	
O		3.63390525		1.03359206		6.54167066		-0.00009106		-0.00006131		 0.00004001	
O		4.50016138		12.71098255		3.22785017		 0.00009106		 0.00006131		-0.00004001	
O		3.27319539		7.90587936		8.11261005		 0.00009106		-0.00006131		-0.00004001	
O		4.86087230		5.83869630		1.65691077		-0.00009106		 0.00006131		 0.00004001	
O		5.72267194		1.19440366		4.50667936		-0.00037470		-0.00015946		-0.00018399	
O		2.41139469		12.55017201		5.26284041		 0.00037470		 0.00015946		 0.00018399	
O		3.63836068		8.06669096		0.37808053		 0.00037470		-0.00015946		 0.00018399	
O		4.49570490		5.67788365		9.39144030		-0.00037470		 0.00015946		-0.00018399	
O		6.88739955		3.29869765		5.59402775		-0.00017140		 0.00009892		 0.00008225	
O		1.24666708		10.44587695		4.17549308		 0.00017140		-0.00009892		-0.00008225	
O		0.01970003		10.17098601		9.06025402		 0.00017140		 0.00009892		-0.00008225	
O		8.11436554		3.57358859		0.70926680		-0.00017140		-0.00009892		 0.00008225	
O		6.50173167		1.17928505		7.12100365		-0.00022274		 0.00016552		 0.00016766	
O		1.63233497		12.56529061		2.64851718		 0.00022274		-0.00016552		-0.00016766	
O		0.40536792		8.05157129		7.53327706		 0.00022274		 0.00016552		-0.00016766	
O		7.72869871		5.69300331		2.23624271		-0.00022274		-0.00016552		 0.00016766	
O		1.23586097		3.33305994		4.15106868		 0.00001891		 0.00006119		 0.00009244	
O		6.89820461		10.41151572		5.61845109		-0.00001891		-0.00006119		-0.00009244	
O		8.12517166		10.20534619		0.73369120		-0.00001891		 0.00006119		-0.00009244	
O		0.00889392		3.53922842		9.03582963		 0.00001891		-0.00006119		 0.00009244	
O		2.73335141		1.20264959		3.75345012		 0.00022571		 0.00011461		-0.00013120	
O		5.40071417		12.54192501		6.01607071		-0.00022571		-0.00011461		 0.00013120	
O		6.62768122		8.07493795		1.13130977		-0.00022571		 0.00011461		 0.00013120	
O		1.50638648		5.66963665		8.63821000		 0.00022571		-0.00011461		-0.00013120	
O		0.80050677		1.19715230		5.68195261		-0.00025999		-0.00003099		 0.00009125	
O		7.33355880		12.54742124		4.08756715		 0.00025999		 0.00003099		-0.00009125	
O		6.10659175		8.06943960		8.97232810		 0.00025999		-0.00003099		-0.00009125	
O		2.02747382		5.67513500		0.79719273		-0.00025999		 0.00003099		 0.00009125	
O		0.07524997		1.21089658		3.09791530		-0.00014804		-0.00011212		-0.00000453	
O		8.05881560		12.53367802		6.67160553		 0.00014804		 0.00011212		 0.00000453	
O		9.28578265		8.08318494		1.78684459		 0.00014804		-0.00011212		 0.00000453	
O		-1.15171602		5.66138966		7.98267518		-0.00014804		 0.00011212		-0.00000453	
O		3.98348606		3.31656596		5.17100646		-0.00001043		-0.00017754		-0.00035639	
O		4.15057952		10.42800864		4.59851437		 0.00001043		 0.00017754		 0.00035639	
O		2.92361247		10.18885220		9.48327320		 0.00001043		-0.00017754		 0.00035639	
O		5.21045311		3.55572240		0.28624657		-0.00001043		 0.00017754		-0.00035639	
O		4.65489441		3.27945608		7.61534147		 0.00020319		 0.00028642		 0.00004396	
O		3.47917116		10.46511852		2.15417936		-0.00020319		-0.00028642		-0.00004396	
O		2.25220517		10.15174232		7.03894030		-0.00020319		 0.00028642		-0.00004396	
O		5.88186146		3.59283228		2.73058053		 0.00020319		-0.00028642		 0.00004396	
O		4.87379495		1.16966268		1.68133411		 0.00004618		 0.00010011		 0.00024843	
O		3.26027062		12.57491193		8.08818566		-0.00004618		-0.00010011		-0.00024843	
O		4.48723767		8.04195104		3.20342577		-0.00004618		 0.00010011		-0.00024843	
O		3.64682896		5.70262357		6.56609506		 0.00004618		-0.00010011		 0.00024843	
O		4.67919493		1.02259642		9.47448092		-0.00013252		 0.00018386		 0.00014716	
O		3.45487170		12.72197818		0.29503990		 0.00013252		-0.00018386		-0.00014716	
O		2.22790466		7.89488372		5.17979979		 0.00013252		 0.00018386		-0.00014716	
O		5.90616198		5.84969088		4.58972104		-0.00013252		-0.00018386		 0.00014716	
O		7.85626399		1.04046367		2.14147905		-0.00015170		-0.00003824		 0.00017948	
O		0.27780158		12.70411093		7.62804178		 0.00015170		 0.00003824		-0.00017948	
O		1.50476863		7.91275203		2.74328083		 0.00015170		-0.00003824		-0.00017948	
O		6.62929800		5.83182257		7.02623999		-0.00015170		 0.00003824		 0.00017948	
O		-1.10338921		0.98136251		8.03054564		 0.00016430		 0.00007365		-0.00027340	
O		9.23745584		12.76321209		1.73897412		-0.00016430		-0.00007365		 0.00027340	
O		8.01048880		7.85364982		6.62373507		-0.00016430		 0.00007365		 0.00027340	
O		0.12357784		5.89092479		3.14578576		 0.00016430		-0.00007365		-0.00027340	
O		9.65343718		1.09406754		0.27257005		-0.00026624		-0.00030762		 0.00009440	
O		-1.51937054		12.65050707		9.49695078		 0.00026624		 0.00030762		-0.00009440	
O		-0.29240349		7.96635484		4.61219089		 0.00026624		-0.00030762		-0.00009440	
O		8.42647013		5.77821871		5.15732994		-0.00026624		 0.00030762		 0.00009440	
O		1.35807613		1.00885214		8.63430303		 0.00008116		 0.00031377		-0.00007295	
O		6.77599050		12.73572247		1.13521780		-0.00008116		-0.00031377		 0.00007295	
O		5.54902345		7.88113944		6.01997768		-0.00008116		 0.00031377		 0.00007295	
O		2.58504318		5.86343622		3.74954209		 0.00008116		-0.00031377		-0.00007295	
O		2.03629998		1.00197947		0.69461301		 0.00029688		-0.00005819		-0.00006013	
O		6.09776666		12.74259514		9.07490781		-0.00029688		 0.00005819		 0.00006013	
O		7.32473264		7.87426677		4.19014793		-0.00029688		-0.00005819		 0.00006013	
O		0.80933293		5.87030783		5.57937290		 0.00029688		 0.00005819		-0.00006013	
O		2.21259335		3.28770201		6.99009150		-0.00025542		 0.00017077		 0.00012308	
O		5.92147434		10.45687259		2.77942932		 0.00025542		-0.00017077		-0.00012308	
O		4.69450729		10.15998931		7.66418921		 0.00025542		 0.00017077		-0.00012308	
O		3.43956040		3.58458529		2.10533162		-0.00025542		-0.00017077		 0.00012308	
O		8.35511654		1.17103806		5.16319145		 0.00004611		 0.00010132		 0.00008127	
O		-0.22104990		12.57353655		4.60632937		-0.00004611		-0.00010132		-0.00008127	
O		-1.44801695		8.04332536		9.49108820		-0.00004611		 0.00010132		-0.00008127	
O		9.58208359		5.70125030		0.27843157		 0.00004611		-0.00010132		 0.00008127	
O		-0.84821948		3.40453106		6.22220742		-0.00007875		 0.00013994		 0.00020887	
O		8.98228717		10.34004354		3.54731341		 0.00007875		-0.00013994		-0.00020887	
O		7.75532012		10.27681730		8.43207224		 0.00007875		 0.00013994		-0.00020887	
O		0.37874651		3.46775624		1.33744647		-0.00007875		-0.00013994		 0.00020887	
O		8.86703150		3.41002941		3.55512841		-0.00018398		-0.00075073		 0.00015146	
O		-0.73296592		10.33454519		6.21439135		 0.00018398		 0.00075073		-0.00015146	
O		0.49400112		10.28231565		1.32963147		 0.00018398		-0.00075073		-0.00015146	
O		7.64006445		3.46225895		8.43988830		-0.00018398		 0.00075073		 0.00015146	
H		-1.20765983		2.65270261		5.86171250		-0.00044827		 0.00014181		 0.00062211	
H		9.34172647		11.09187199		3.90780833		 0.00044827		-0.00014181		-0.00062211	
H		8.11475942		9.52499097		8.79256822		 0.00044827		 0.00014181		-0.00062211	
H		0.01930722		4.21958363		0.97695155		-0.00044827		-0.00014181		 0.00062211	
H		8.69894806		2.80389290		4.06412109		-0.00006954		 0.00051648		-0.00039879	
H		-0.56488143		10.94068171		5.70539974		 0.00006954		-0.00051648		 0.00039879	
H		0.66208562		9.67618020		0.82063986		 0.00006954		 0.00051648		 0.00039879	
H		7.47198101		4.06839335		8.94888097		-0.00006954		-0.00051648		-0.00039879	
