# total energy = -117597.447106 eV	

CRYSTAL	
PRIMVEC	
		10.58799967		0.00000000		0.00000000	
		0.00000000		15.15427570		0.00000000	
		-2.45393833		0.00000000		9.76951553	
PRIMCOORD
   156 1	
Si		8.18330189		0.01500320		0.72440976		 0.00022022		-0.00010879		 0.00019547	
Si		-0.04923632		15.13927251		9.04511107		-0.00022022		 0.00010879		-0.00019547	
Si		1.17773073		7.59213999		4.16035012		-0.00022022		-0.00010879		-0.00019547	
Si		6.95633484		7.56213466		5.60917070		 0.00022022		 0.00010879		 0.00019547	
Si		3.61492732		2.87385734		6.58055403		 0.00013828		-0.00036150		-0.00004841	
Si		4.51914037		12.28041836		3.18896680		-0.00013828		 0.00036150		 0.00004841	
Si		3.29217333		10.45099413		8.07372668		-0.00013828		-0.00036150		 0.00004841	
Si		4.84189437		4.70328051		1.69579309		 0.00013828		 0.00036150		-0.00004841	
Si		1.21183891		1.90186097		4.16914240		-0.00010636		 0.00059460		 0.00007529	
Si		6.92222666		13.25241367		5.60037737		 0.00010636		-0.00059460		-0.00007529	
Si		8.14919371		9.47899882		0.71561749		 0.00010636		 0.00059460		-0.00007529	
Si		-0.01512708		5.67527582		9.05390228		-0.00010636		-0.00059460		 0.00007529	
Si		6.86524205		1.86897676		5.59793578		 0.00019824		 0.00055639		 0.00004943	
Si		1.26882459		13.28529788		4.17158505		-0.00019824		-0.00055639		-0.00004943	
Si		0.04185754		9.44611355		9.05634599		-0.00019824		 0.00055639		-0.00004943	
Si		8.09220909		5.70816109		0.71317484		 0.00019824		-0.00055639		 0.00004943	
Mg		4.06703279		0.00000000		4.88475988		0.00000000		0.00000000		-0.00000000	
Mg		5.29399984		7.57713785		0.00000000		0.00000000		0.00000000		0.00000000	
Mg		4.39572559		2.64457315		3.48175993		 0.00007347		 0.00012699		-0.00022907	
Mg		3.73834104		12.50970255		6.28776090		-0.00007347		-0.00012699		 0.00022907	
Mg		4.96530809		10.22170994		1.40300101		-0.00007347		 0.00012699		 0.00022907	
Mg		3.16875854		4.93256470		8.36651981		 0.00007347		-0.00012699		-0.00022907	
Mg		5.29399984		0.00000000		0.00000000		0.00000000		0.00000000		0.00000000	
Mg		4.06703279		7.57713785		4.88475988		0.00000000		0.00000000		0.00000000	
Mg		6.19165257		0.03773351		2.86383686		 0.00020096		-0.00018242		-0.00024679	
Mg		1.94241301		15.11654007		6.90568397		-0.00020096		 0.00018242		 0.00024679	
Mg		3.16938006		7.61487031		2.02092303		-0.00020096		-0.00018242		 0.00024679	
Mg		4.96468552		7.53940328		7.74859780		 0.00020096		 0.00018242		-0.00024679	
Mg		0.42170944		0.00530353		1.48887498		 0.00007268		-0.00008926		-0.00009149	
Mg		7.71235825		15.14897006		8.28064584		-0.00007268		 0.00008926		 0.00009149	
Mg		8.93932424		7.58244138		3.39588490		-0.00007268		-0.00008926		 0.00009149	
Mg		-0.80525761		7.57183326		6.37363593		 0.00007268		 0.00008926		-0.00009149	
Mg		-0.86838750		0.00530353		6.20091071		 0.00012436		 0.00027398		-0.00002665	
Mg		9.00245519		15.14897006		3.56861011		-0.00012436		-0.00027398		 0.00002665	
Mg		7.77548814		7.58244138		8.45337106		-0.00012436		 0.00027398		 0.00002665	
Mg		0.35857849		7.57183326		1.31614977		 0.00012436		-0.00027398		-0.00002665	
Mg		3.19404057		0.04197718		2.10484245		 0.00009448		-0.00015337		-0.00040028	
Mg		4.94002607		15.11229746		7.66467731		-0.00009448		 0.00015337		 0.00040028	
Mg		6.16699311		7.61911503		2.77991743		-0.00009448		-0.00015337		 0.00040028	
Mg		1.96707352		7.53515961		6.98960340		 0.00009448		 0.00015337		-0.00040028	
Mg		6.57114024		2.57531704		1.20761007		-0.00036896		-0.00037128		-0.00000132	
Mg		1.56292640		12.57895760		8.56190970		 0.00036896		 0.00037128		 0.00000132	
Mg		2.78989239		10.15245489		3.67714982		 0.00036896		-0.00037128		 0.00000132	
Mg		5.34417319		5.00181975		6.09237101		-0.00036896		 0.00037128		-0.00000132	
Mg		-1.63791484		2.62214353		9.47360212		-0.00002152		-0.00040965		 0.00009171	
Mg		9.77198042		12.53213111		0.29591871		 0.00002152		 0.00040965		-0.00009171	
Mg		8.54501337		10.19928138		5.18067859		 0.00002152		-0.00040965		-0.00009171	
Mg		-0.41094780		4.95499326		4.58884223		-0.00002152		 0.00040965		 0.00009171	
Mg		0.46893509		2.68533801		7.34638722		-0.00005241		 0.00049052		 0.00004202	
Mg		7.66513154		12.46893664		2.42313361		 0.00005241		-0.00049052		-0.00004202	
Mg		6.43816449		10.26247480		7.30789455		 0.00005241		 0.00049052		-0.00004202	
Mg		1.69590108		4.89179985		2.46162628		-0.00005241		-0.00049052		 0.00004202	
Mg		6.00405545		2.66609220		8.74235357		-0.00018908		-0.00046823		 0.00004782	
Mg		2.13001119		12.48818244		1.02716726		 0.00018908		 0.00046823		-0.00004782	
Mg		0.90304414		10.24323005		5.91192820		 0.00018908		-0.00046823		-0.00004782	
Mg		7.23102249		4.91104565		3.85759262		-0.00018908		 0.00046823		 0.00004782	
Mg		3.60529224		2.55455609		0.44060478		 0.00015935		-0.00007103		-0.00012701	
Mg		4.52877334		12.59971855		9.32891604		-0.00015935		 0.00007103		 0.00012701	
Mg		5.75574038		10.13169289		4.44415510		-0.00015935		-0.00007103		 0.00012701	
Mg		2.37832519		5.02258176		5.32536573		 0.00015935		 0.00007103		-0.00012701	
Mg		9.40458318		2.68988343		1.94237595		-0.00008029		-0.00034264		 0.00026626	
Mg		-1.27051655		12.46439015		7.82714488		 0.00008029		 0.00034264		-0.00026626	
Mg		-0.04354950		10.26702129		2.94238393		 0.00008029		-0.00034264		-0.00026626	
Mg		8.17761719		4.88725336		6.82713584		-0.00008029		 0.00034264		 0.00026626	
O		3.63390525		1.13960123		6.54167066		-0.00002898		-0.00006987		 0.00025780	
O		4.50016138		14.01467236		3.22785017		 0.00002898		 0.00006987		-0.00025780	
O		3.27319539		8.71673908		8.11261005		 0.00002898		-0.00006987		-0.00025780	
O		4.86087230		6.43753556		1.65691077		-0.00002898		 0.00006987		 0.00025780	
O		5.72267194		1.31690681		4.50667936		 0.00017248		-0.00042713		 0.00027923	
O		2.41139469		13.83736889		5.26284041		-0.00017248		 0.00042713		-0.00027923	
O		3.63836068		8.89404360		0.37808053		-0.00017248		-0.00042713		-0.00027923	
O		4.49570490		6.26023104		9.39144030		 0.00017248		 0.00042713		 0.00027923	
O		6.88739955		3.63702553		5.59402775		-0.00017758		 0.00000985		 0.00012473	
O		1.24666708		11.51724911		4.17549308		 0.00017758		-0.00000985		-0.00012473	
O		0.01970003		11.21416338		9.06025402		 0.00017758		 0.00000985		-0.00012473	
O		8.11436554		3.94011126		0.70926680		-0.00017758		-0.00000985		 0.00012473	
O		6.50173167		1.30023706		7.12100365		-0.00004089		-0.00013608		-0.00018314	
O		1.63233497		13.85403758		2.64851718		 0.00004089		 0.00013608		 0.00018314	
O		0.40536792		8.87737386		7.53327706		 0.00004089		-0.00013608		 0.00018314	
O		7.72869871		6.27690079		2.23624271		-0.00004089		 0.00013608		-0.00018314	
O		1.23586097		3.67491151		4.15106868		 0.00002694		 0.00007250		 0.00026323	
O		6.89820461		11.47936313		5.61845109		-0.00002694		-0.00007250		-0.00026323	
O		8.12517166		11.25204831		0.73369120		-0.00002694		 0.00007250		-0.00026323	
O		0.00889392		3.90222634		9.03582963		 0.00002694		-0.00007250		 0.00026323	
O		2.73335141		1.32599873		3.75345012		-0.00046054		-0.00039133		 0.00000113	
O		5.40071417		13.82827592		6.01607071		 0.00046054		 0.00039133		-0.00000113	
O		6.62768122		8.90313552		1.13130977		 0.00046054		-0.00039133		-0.00000113	
O		1.50638648		6.25113807		8.63821000		-0.00046054		 0.00039133		 0.00000113	
O		0.80050677		1.31993710		5.68195261		-0.00011116		-0.00005249		-0.00004698	
O		7.33355880		13.83433649		4.08756715		 0.00011116		 0.00005249		 0.00004698	
O		6.10659175		8.89707495		8.97232810		 0.00011116		-0.00005249		 0.00004698	
O		2.02747382		6.25719970		0.79719273		-0.00011116		 0.00005249		-0.00004698	
O		0.07524997		1.33509170		3.09791530		 0.00005406		-0.00051783		 0.00042920	
O		8.05881560		13.81918294		6.67160553		-0.00005406		 0.00051783		-0.00042920	
O		9.28578265		8.91222849		1.78684459		-0.00005406		-0.00051783		-0.00042920	
O		-1.15171602		6.24204615		7.98267518		 0.00005406		 0.00051783		 0.00042920	
O		3.98348606		3.65672662		5.17100646		-0.00001889		 0.00033810		 0.00017411	
O		4.15057952		11.49754908		4.59851437		 0.00001889		-0.00033810		-0.00017411	
O		2.92361247		11.23386342		9.48327320		 0.00001889		 0.00033810		-0.00017411	
O		5.21045311		3.92041123		0.28624657		-0.00001889		-0.00033810		 0.00017411	
O		4.65489441		3.61581036		7.61534147		-0.00021703		 0.00022515		-0.00002339	
O		3.47917116		11.53846429		2.15417936		 0.00021703		-0.00022515		 0.00002339	
O		2.25220517		11.19294715		7.03894030		 0.00021703		 0.00022515		 0.00002339	
O		5.88186146		3.96132643		2.73058053		-0.00021703		-0.00022515		-0.00002339	
O		4.87379495		1.28962895		1.68133411		-0.00001068		 0.00051805		-0.00030423	
O		3.26027062		13.86464570		8.08818566		 0.00001068		-0.00051805		 0.00030423	
O		4.48723767		8.86676574		3.20342577		 0.00001068		 0.00051805		 0.00030423	
O		3.64682896		6.28750890		6.56609506		-0.00001068		-0.00051805		-0.00030423	
O		4.67919493		1.12747797		9.47448092		 0.00009774		 0.00038679		 0.00006159	
O		3.45487170		14.02679668		0.29503990		-0.00009774		-0.00038679		-0.00006159	
O		2.22790466		8.70461582		5.17979979		-0.00009774		 0.00038679		-0.00006159	
O		5.90616198		6.44965882		4.58972104		 0.00009774		-0.00038679		 0.00006159	
O		7.85626399		1.14717906		2.14147905		-0.00013805		 0.00019367		 0.00019669	
O		0.27780158		14.00709664		7.62804178		 0.00013805		-0.00019367		-0.00019669	
O		1.50476863		8.72431585		2.74328083		 0.00013805		 0.00019367		-0.00019669	
O		6.62929800		6.42995879		7.02623999		-0.00013805		-0.00019367		 0.00019669	
O		-1.10338921		1.08201522		8.03054564		-0.00032395		 0.00015178		 0.00012553	
O		9.23745584		14.07225943		1.73897412		 0.00032395		-0.00015178		-0.00012553	
O		8.01048880		8.65915307		6.62373507		 0.00032395		 0.00015178		-0.00012553	
O		0.12357784		6.49512264		3.14578576		-0.00032395		-0.00015178		 0.00012553	
O		9.65343718		1.20628021		0.27257005		-0.00008320		-0.00036701		 0.00033922	
O		-1.51937054		13.94799443		9.49695078		 0.00008320		 0.00036701		-0.00033922	
O		-0.29240349		8.78341807		4.61219089		 0.00008320		-0.00036701		-0.00033922	
O		8.42647013		6.37085658		5.15732994		-0.00008320		 0.00036701		 0.00033922	
O		1.35807613		1.11232442		8.63430303		-0.00017388		 0.00007629		 0.00013197	
O		6.77599050		14.04195022		1.13521780		 0.00017388		-0.00007629		-0.00013197	
O		5.54902345		8.68946122		6.01997768		 0.00017388		 0.00007629		-0.00013197	
O		2.58504318		6.46481343		3.74954209		-0.00017388		-0.00007629		 0.00013197	
O		2.03629998		1.10474659		0.69461301		-0.00006778		 0.00025706		-0.00012158	
O		6.09776666		14.04952805		9.07490781		 0.00006778		-0.00025706		 0.00012158	
O		7.32473264		8.68188338		4.19014793		 0.00006778		 0.00025706		 0.00012158	
O		0.80933293		6.47239126		5.57937290		-0.00006778		-0.00025706		-0.00012158	
O		2.21259335		3.62490333		6.99009150		 0.00027985		 0.00012916		-0.00008920	
O		5.92147434		11.52937237		2.77942932		-0.00027985		-0.00012916		 0.00008920	
O		4.69450729		11.20204013		7.66418921		-0.00027985		 0.00012916		 0.00008920	
O		3.43956040		3.95223452		2.10533162		 0.00027985		-0.00012916		-0.00008920	
O		8.35511654		1.29114409		5.16319145		-0.00023979		-0.00090229		 0.00058323	
O		-0.22104990		13.86313055		4.60632937		 0.00023979		 0.00090229		-0.00058323	
O		-1.44801695		8.86828194		9.49108820		 0.00023979		-0.00090229		-0.00058323	
O		9.58208359		6.28599270		0.27843157		-0.00023979		 0.00090229		 0.00058323	
O		-0.84821948		3.75371376		6.22220742		 0.00001869		 0.00042935		 0.00019539	
O		8.98228717		11.40056194		3.54731341		-0.00001869		-0.00042935		-0.00019539	
O		7.75532012		11.33085055		8.43207224		-0.00001869		 0.00042935		-0.00019539	
O		0.37874651		3.82342409		1.33744647		 0.00001869		-0.00042935		 0.00019539	
O		8.86703150		3.75977539		3.55512841		-0.00042640		-0.00026238		 0.00027497	
O		-0.73296592		11.39449925		6.21439135		 0.00042640		 0.00026238		-0.00027497	
O		0.49400112		11.33691218		1.32963147		 0.00042640		-0.00026238		-0.00027497	
O		7.64006445		3.81736140		8.43988830		-0.00042640		 0.00026238		 0.00027497	
H		-1.20765983		2.92477503		5.86171250		 0.00009441		 0.00034083		 0.00032959	
H		9.34172647		12.22949961		3.90780833		-0.00009441		-0.00034083		-0.00032959	
H		8.11475942		10.50191288		8.79256822		-0.00009441		 0.00034083		-0.00032959	
H		0.01930722		4.65236176		0.97695155		 0.00009441		-0.00034083		 0.00032959	
H		8.69894806		3.09147144		4.06412109		 0.00004922		 0.00075964		-0.00077830	
H		-0.56488143		12.06280215		5.70539974		-0.00004922		-0.00075964		 0.00077830	
H		0.66208562		10.66860929		0.82063986		-0.00004922		 0.00075964		 0.00077830	
H		7.47198101		4.48566535		8.94888097		 0.00004922		-0.00075964		-0.00077830	
