# total energy = -117602.676489 eV	

CRYSTAL	
PRIMVEC	
		10.58799967		0.00000000		0.00000000	
		0.00000000		14.44942198		0.00000000	
		-2.45393833		0.00000000		9.76951553	
PRIMCOORD
   156 1	
Si		8.18330189		0.01430545		0.72440976		-0.00024940		-0.00012380		 0.00010887	
Si		-0.04923632		14.43512077		9.04511107		 0.00024940		 0.00012380		-0.00010887	
Si		1.17773073		7.23901643		4.16035012		 0.00024940		-0.00012380		-0.00010887	
Si		6.95633484		7.21040766		5.60917070		-0.00024940		 0.00012380		 0.00010887	
Si		3.61492732		2.74018914		6.58055403		-0.00001033		-0.00004389		 0.00002836	
Si		4.51914037		11.70923601		3.18896680		 0.00001033		 0.00004389		-0.00002836	
Si		3.29217333		9.96490119		8.07372668		 0.00001033		-0.00004389		-0.00002836	
Si		4.84189437		4.48452397		1.69579309		-0.00001033		 0.00004389		 0.00002836	
Si		1.21183891		1.81340247		4.16914240		-0.00001819		-0.00000353		 0.00003681	
Si		6.92222666		12.63602268		5.60037737		 0.00001819		 0.00000353		-0.00003681	
Si		8.14919371		9.03811452		0.71561749		 0.00001819		-0.00000353		-0.00003681	
Si		-0.01512708		5.41130958		9.05390228		-0.00001819		 0.00000353		 0.00003681	
Si		6.86524205		1.78204823		5.59793578		-0.00019025		 0.00016705		-0.00016614	
Si		1.26882459		12.66737799		4.17158505		 0.00019025		-0.00016705		 0.00016614	
Si		0.04185754		9.00675921		9.05634599		 0.00019025		 0.00016705		 0.00016614	
Si		8.09220909		5.44266488		0.71317484		-0.00019025		-0.00016705		-0.00016614	
Mg		4.06703279		0.00000000		4.88475988		0.00000000		0.00000000		0.00000000	
Mg		5.29399984		7.22471311		0.00000000		0.00000000		0.00000000		0.00000000	
Mg		4.39572559		2.52156918		3.48175993		-0.00033489		-0.00019689		 0.00013482	
Mg		3.73834104		11.92785597		6.28776090		 0.00033489		 0.00019689		-0.00013482	
Mg		4.96530809		9.74628123		1.40300101		 0.00033489		-0.00019689		-0.00013482	
Mg		3.16875854		4.70314287		8.36651981		-0.00033489		 0.00019689		 0.00013482	
Mg		5.29399984		0.00000000		0.00000000		0.00000000		0.00000000		0.00000000	
Mg		4.06703279		7.22471311		4.88475988		0.00000000		0.00000000		0.00000000	
Mg		6.19165257		0.03597908		2.86383686		 0.00016014		-0.00001367		 0.00022869	
Mg		1.94241301		14.41344607		6.90568397		-0.00016014		 0.00001367		-0.00022869	
Mg		3.16938006		7.26069113		2.02092303		-0.00016014		-0.00001367		-0.00022869	
Mg		4.96468552		7.18873297		7.74859780		 0.00016014		 0.00001367		 0.00022869	
Mg		0.42170944		0.00505683		1.48887498		 0.00021592		-0.00026447		 0.00001413	
Mg		7.71235825		14.44436727		8.28064584		-0.00021592		 0.00026447		-0.00001413	
Mg		8.93932424		7.22976993		3.39588490		-0.00021592		-0.00026447		-0.00001413	
Mg		-0.80525761		7.21965522		6.37363593		 0.00021592		 0.00026447		 0.00001413	
Mg		-0.86838750		0.00505683		6.20091071		-0.00004715		 0.00015556		 0.00012649	
Mg		9.00245519		14.44436727		3.56861011		 0.00004715		-0.00015556		-0.00012649	
Mg		7.77548814		7.22976993		8.45337106		 0.00004715		 0.00015556		-0.00012649	
Mg		0.35857849		7.21965522		1.31614977		-0.00004715		-0.00015556		 0.00012649	
Mg		3.19404057		0.04002476		2.10484245		 0.00015694		 0.00002603		-0.00007247	
Mg		4.94002607		14.40939934		7.66467731		-0.00015694		-0.00002603		 0.00007247	
Mg		6.16699311		7.26473786		2.77991743		-0.00015694		 0.00002603		 0.00007247	
Mg		1.96707352		7.18468729		6.98960340		 0.00015694		-0.00002603		-0.00007247	
Mg		6.57114024		2.45553500		1.20761007		 0.00027786		-0.00008565		 0.00004073	
Mg		1.56292640		11.99389015		8.56190970		-0.00027786		 0.00008565		-0.00004073	
Mg		2.78989239		9.68024811		3.67714982		-0.00027786		-0.00008565		-0.00004073	
Mg		5.34417319		4.76917704		6.09237101		 0.00027786		 0.00008565		 0.00004073	
Mg		-1.63791484		2.50018354		9.47360212		-0.00028531		 0.00033220		-0.00004819	
Mg		9.77198042		11.94924056		0.29591871		 0.00028531		-0.00033220		 0.00004819	
Mg		8.54501337		9.72489664		5.18067859		 0.00028531		 0.00033220		 0.00004819	
Mg		-0.41094780		4.72452745		4.58884223		-0.00028531		-0.00033220		-0.00004819	
Mg		0.46893509		2.56043773		7.34638722		 0.00002872		 0.00006130		 0.00024144	
Mg		7.66513154		11.88898637		2.42313361		-0.00002872		-0.00006130		-0.00024144	
Mg		6.43816449		9.78515083		7.30789455		-0.00002872		 0.00006130		-0.00024144	
Mg		1.69590108		4.66427432		2.46162628		 0.00002872		-0.00006130		 0.00024144	
Mg		6.00405545		2.54208661		8.74235357		-0.00004004		 0.00007079		-0.00001918	
Mg		2.13001119		11.90733643		1.02716726		 0.00004004		-0.00007079		 0.00001918	
Mg		0.90304414		9.76679971		5.91192820		 0.00004004		 0.00007079		 0.00001918	
Mg		7.23102249		4.68262438		3.85759262		-0.00004004		-0.00007079		-0.00001918	
Mg		3.60529224		2.43573968		0.44060478		-0.00029349		-0.00013511		 0.00005041	
Mg		4.52877334		12.01368547		9.32891604		 0.00029349		 0.00013511		-0.00005041	
Mg		5.75574038		9.66045173		4.44415510		 0.00029349		-0.00013511		-0.00005041	
Mg		2.37832519		4.78897237		5.32536573		-0.00029349		 0.00013511		 0.00005041	
Mg		9.40458318		2.56477245		1.94237595		 0.00023725		 0.00013453		 0.00016766	
Mg		-1.27051655		11.88465164		7.82714488		-0.00023725		-0.00013453		-0.00016766	
Mg		-0.04354950		9.78948556		2.94238393		-0.00023725		 0.00013453		-0.00016766	
Mg		8.17761719		4.65993853		6.82713584		 0.00023725		-0.00013453		 0.00016766	
O		3.63390525		1.08659664		6.54167066		-0.00011196		 0.00009245		 0.00018008	
O		4.50016138		13.36282745		3.22785017		 0.00011196		-0.00009245		-0.00018008	
O		3.27319539		8.31130975		8.11261005		 0.00011196		 0.00009245		-0.00018008	
O		4.86087230		6.13811540		1.65691077		-0.00011196		-0.00009245		 0.00018008	
O		5.72267194		1.25565523		4.50667936		-0.00012136		-0.00030485		 0.00016137	
O		2.41139469		13.19376992		5.26284041		 0.00012136		 0.00030485		-0.00016137	
O		3.63836068		8.48036728		0.37808053		 0.00012136		-0.00030485		-0.00016137	
O		4.49570490		5.96905787		9.39144030		-0.00012136		 0.00030485		 0.00016137	
O		6.88739955		3.46786212		5.59402775		-0.00016430		 0.00036760		-0.00005026	
O		1.24666708		10.98156303		4.17549308		 0.00016430		-0.00036760		 0.00005026	
O		0.01970003		10.69257417		9.06025402		 0.00016430		 0.00036760		 0.00005026	
O		8.11436554		3.75684993		0.70926680		-0.00016430		-0.00036760		-0.00005026	
O		6.50173167		1.23976053		7.12100365		-0.00000565		 0.00017184		-0.00018784	
O		1.63233497		13.20966462		2.64851718		 0.00000565		-0.00017184		 0.00018784	
O		0.40536792		8.46447258		7.53327706		 0.00000565		 0.00017184		 0.00018784	
O		7.72869871		5.98495152		2.23624271		-0.00000565		-0.00017184		-0.00018784	
O		1.23586097		3.50398626		4.15106868		 0.00005977		 0.00020609		 0.00004603	
O		6.89820461		10.94543889		5.61845109		-0.00005977		-0.00020609		-0.00004603	
O		8.12517166		10.72869725		0.73369120		-0.00005977		 0.00020609		-0.00004603	
O		0.00889392		3.72072685		9.03582963		 0.00005977		-0.00020609		 0.00004603	
O		2.73335141		1.26432469		3.75345012		-0.00029136		-0.00016715		-0.00005054	
O		5.40071417		13.18510047		6.01607071		 0.00029136		 0.00016715		 0.00005054	
O		6.62768122		8.48903673		1.13130977		 0.00029136		-0.00016715		 0.00005054	
O		1.50638648		5.96038736		8.63821000		-0.00029136		 0.00016715		-0.00005054	
O		0.80050677		1.25854470		5.68195261		-0.00012140		-0.00005965		-0.00011462	
O		7.33355880		13.19087940		4.08756715		 0.00012140		 0.00005965		 0.00011462	
O		6.10659175		8.48325780		8.97232810		 0.00012140		-0.00005965		 0.00011462	
O		2.02747382		5.96616735		0.79719273		-0.00012140		 0.00005965		-0.00011462	
O		0.07524997		1.27299414		3.09791530		-0.00000686		-0.00033581		 0.00020119	
O		8.05881560		13.17643101		6.67160553		 0.00000686		 0.00033581		-0.00020119	
O		9.28578265		8.49770725		1.78684459		 0.00000686		-0.00033581		-0.00020119	
O		-1.15171602		5.95171791		7.98267518		-0.00000686		 0.00033581		 0.00020119	
O		3.98348606		3.48664629		5.17100646		-0.00014023		-0.00028335		-0.00006616	
O		4.15057952		10.96277886		4.59851437		 0.00014023		 0.00028335		 0.00006616	
O		2.92361247		10.71135834		9.48327320		 0.00014023		-0.00028335		 0.00006616	
O		5.21045311		3.73806576		0.28624657		-0.00014023		 0.00028335		-0.00006616	
O		4.65489441		3.44763269		7.61534147		 0.00007242		 0.00010384		-0.00009787	
O		3.47917116		11.00179140		2.15417936		-0.00007242		-0.00010384		 0.00009787	
O		2.25220517		10.67234580		7.03894030		-0.00007242		 0.00010384		 0.00009787	
O		5.88186146		3.77707936		2.73058053		 0.00007242		-0.00010384		-0.00009787	
O		4.87379495		1.22964581		1.68133411		-0.00010869		 0.00017041		 0.00005034	
O		3.26027062		13.21977828		8.08818566		 0.00010869		-0.00017041		-0.00005034	
O		4.48723767		8.45435892		3.20342577		 0.00010869		 0.00017041		-0.00005034	
O		3.64682896		5.99506729		6.56609506		-0.00010869		-0.00017041		 0.00005034	
O		4.67919493		1.07503666		9.47448092		-0.00003539		 0.00025765		 0.00018116	
O		3.45487170		13.37438743		0.29503990		 0.00003539		-0.00025765		-0.00018116	
O		2.22790466		8.29974977		5.17979979		 0.00003539		 0.00025765		-0.00018116	
O		5.90616198		6.14967432		4.58972104		-0.00003539		-0.00025765		 0.00018116	
O		7.85626399		1.09382083		2.14147905		-0.00023964		 0.00005892		 0.00001189	
O		0.27780158		13.35560326		7.62804178		 0.00023964		-0.00005892		-0.00001189	
O		1.50476863		8.31853394		2.74328083		 0.00023964		 0.00005892		-0.00001189	
O		6.62929800		6.13089121		7.02623999		-0.00023964		-0.00005892		 0.00001189	
O		-1.10338921		1.03168939		8.03054564		 0.00021677		 0.00046190		-0.00000766	
O		9.23745584		13.41773576		1.73897412		-0.00021677		-0.00046190		 0.00000766	
O		8.01048880		8.25640038		6.62373507		-0.00021677		 0.00046190		 0.00000766	
O		0.12357784		6.19302371		3.14578576		 0.00021677		-0.00046190		-0.00000766	
O		9.65343718		1.15017440		0.27257005		-0.00020177		 0.00001131		 0.00017883	
O		-1.51937054		13.29925075		9.49695078		 0.00020177		-0.00001131		-0.00017883	
O		-0.29240349		8.37488539		4.61219089		 0.00020177		 0.00001131		-0.00017883	
O		8.42647013		6.07453764		5.15732994		-0.00020177		-0.00001131		 0.00017883	
O		1.35807613		1.06058828		8.63430303		-0.00009889		 0.00039968		 0.00000208	
O		6.77599050		13.38883687		1.13521780		 0.00009889		-0.00039968		-0.00000208	
O		5.54902345		8.28530033		6.01997768		 0.00009889		 0.00039968		-0.00000208	
O		2.58504318		6.16412483		3.74954209		-0.00009889		-0.00039968		 0.00000208	
O		2.03629998		1.05336303		0.69461301		 0.00020423		 0.00010689		-0.00013348	
O		6.09776666		13.39606106		9.07490781		-0.00020423		-0.00010689		 0.00013348	
O		7.32473264		8.27807614		4.19014793		-0.00020423		 0.00010689		 0.00013348	
O		0.80933293		6.17135008		5.57937290		 0.00020423		-0.00010689		-0.00013348	
O		2.21259335		3.45630214		6.99009150		-0.00005976		 0.00024698		-0.00007711	
O		5.92147434		10.99312301		2.77942932		 0.00005976		-0.00024698		 0.00007711	
O		4.69450729		10.68101419		7.66418921		 0.00005976		 0.00024698		 0.00007711	
O		3.43956040		3.76840990		2.10533162		-0.00005976		-0.00024698		-0.00007711	
O		8.35511654		1.23109107		5.16319145		-0.00026530		-0.00026654		 0.00045303	
O		-0.22104990		13.21833408		4.60632937		 0.00026530		 0.00026654		-0.00045303	
O		-1.44801695		8.45580418		9.49108820		 0.00026530		-0.00026654		-0.00045303	
O		9.58208359		5.99362097		0.27843157		-0.00026530		 0.00026654		 0.00045303	
O		-0.84821948		3.57912294		6.22220742		 0.00013607		 0.00036598		 0.00022687	
O		8.98228717		10.87030221		3.54731341		-0.00013607		-0.00036598		-0.00022687	
O		7.75532012		10.80383499		8.43207224		-0.00013607		 0.00036598		-0.00022687	
O		0.37874651		3.64559017		1.33744647		 0.00013607		-0.00036598		 0.00022687	
O		8.86703150		3.58490187		3.55512841		-0.00009129		-0.00027355		-0.00018549	
O		-0.73296592		10.86452222		6.21439135		 0.00009129		 0.00027355		 0.00018549	
O		0.49400112		10.80961498		1.32963147		 0.00009129		-0.00027355		 0.00018549	
O		7.64006445		3.63981018		8.43988830		-0.00009129		 0.00027355		-0.00018549	
H		-1.20765983		2.78873935		5.86171250		-0.00022865		 0.00000341		 0.00052733	
H		9.34172647		11.66068580		3.90780833		 0.00022865		-0.00000341		-0.00052733	
H		8.11475942		10.01345140		8.79256822		 0.00022865		 0.00000341		-0.00052733	
H		0.01930722		4.43597269		0.97695155		-0.00022865		-0.00000341		 0.00052733	
H		8.69894806		2.94768323		4.06412109		 0.00008199		-0.00000335		-0.00017742	
H		-0.56488143		11.50174193		5.70539974		-0.00008199		 0.00000335		 0.00017742	
H		0.66208562		10.17239421		0.82063986		-0.00008199		-0.00000335		 0.00017742	
H		7.47198101		4.27702988		8.94888097		 0.00008199		 0.00000335		-0.00017742	
