# total energy = -13382.3420943 eV	

CRYSTAL	
PRIMVEC	
		3.05300065		-0.36635934		0.00000000	
		-1.84377652		2.82715516		0.00000000	
		0.00000000		0.00000000		20.12500151	
PRIMCOORD
   18 1	
O		0.00000000		0.00000000		6.26491322		-0.00034917		 0.00011303		 0.00072645	
O		0.00000000		0.00000000		13.86008767		 0.00034917		-0.00011303		-0.00072645	
O		1.42074118		0.69814508		8.61752534		 0.00062430		-0.00038243		-0.00070044	
O		-0.21151798		1.76265012		11.50747556		-0.00062430		 0.00038243		 0.00070044	
O		1.42074118		0.69814508		1.44497511		 0.00001369		 0.00003792		 0.00027126	
O		-0.21151798		1.76265012		18.68002609		-0.00001369		-0.00003792		-0.00027126	
O		-0.21151798		1.76265012		3.79758815		 0.00005582		-0.00060338		-0.00089553	
O		1.42074118		0.69814508		16.32741274		-0.00005582		 0.00060338		 0.00089553	
H		1.42074118		0.69814508		9.60767553		-0.00013411		 0.00011560		-0.00037534	
H		-0.21151798		1.76265012		10.51732567		 0.00013411		-0.00011560		 0.00037534	
H		1.42074118		0.69814508		0.45482492		-0.00005310		 0.00040640		-0.00014873	
H		-0.21151798		1.76265012		19.67017597		 0.00005310		-0.00040640		 0.00014873	
Mg		-0.21151798		1.76265012		7.50461333		-0.00043899		 0.00028560		 0.00023397	
Mg		1.42074118		0.69814508		12.62038756		 0.00043899		-0.00028560		-0.00023397	
Mg		0.00000000		0.00000000		2.55788804		 0.00017614		 0.00005489		-0.00039874	
Mg		0.00000000		0.00000000		17.56711377		-0.00017614		-0.00005489		 0.00039874	
Mg		1.42074118		0.69814508		5.03326229		-0.00013199		-0.00025817		-0.00012416	
Mg		-0.21151798		1.76265012		15.09173768		 0.00013199		 0.00025817		 0.00012416	
