# total energy = -13380.7150976 eV	

CRYSTAL	
PRIMVEC	
		3.05300125		-0.48848156		0.00000000	
		-1.94953584		2.88821590		0.00000000	
		0.00000000		0.00000000		20.12500064	
PRIMCOORD
   18 1	
O		0.00000000		0.00000000		6.26491337		-0.00025937		 0.00010633		-0.00035880	
O		0.00000000		0.00000000		13.86008758		 0.00025937		-0.00010633		 0.00035880	
O		1.38548806		0.63708488		8.61752542		-0.00043276		 0.00011280		 0.00000601	
O		-0.28202389		1.76265008		11.50747553		 0.00043276		-0.00011280		-0.00000601	
O		1.38548806		0.63708488		1.44497490		-0.00040360		 0.00082478		-0.00043337	
O		-0.28202389		1.76265008		18.68002574		 0.00040360		-0.00082478		 0.00043337	
O		-0.28202389		1.76265008		3.79758819		 0.00005255		-0.00081838		-0.00014646	
O		1.38548806		0.63708488		16.32741245		-0.00005255		 0.00081838		 0.00014646	
H		1.38548806		0.63708488		9.60767551		 0.00025140		-0.00023188		-0.00001105	
H		-0.28202389		1.76265008		10.51732544		-0.00025140		 0.00023188		 0.00001105	
H		1.38548806		0.63708488		0.45482512		-0.00009157		-0.00023331		-0.00032494	
H		-0.28202389		1.76265008		19.67017583		 0.00009157		 0.00023331		 0.00032494	
Mg		-0.28202389		1.76265008		7.50461323		 0.00057417		 0.00024984		-0.00023988	
Mg		1.38548806		0.63708488		12.62038741		-0.00057417		-0.00024984		 0.00023988	
Mg		0.00000000		0.00000000		2.55788802		 0.00011641		-0.00077810		 0.00026989	
Mg		0.00000000		0.00000000		17.56711355		-0.00011641		 0.00077810		-0.00026989	
Mg		1.38548806		0.63708488		5.03326217		-0.00022634		-0.00025045		-0.00042023	
Mg		-0.28202389		1.76265008		15.09173754		 0.00022634		 0.00025045		 0.00042023	
