# total energy = -13383.5482763 eV	

CRYSTAL	
PRIMVEC	
		3.05299894		-0.24423930		0.00000000	
		-1.73801784		2.76609547		0.00000000	
		0.00000000		0.00000000		20.12499998	
PRIMCOORD
   18 1	
O		0.00000000		0.00000000		6.26491253		-0.00014441		-0.00028888		-0.00046605	
O		0.00000000		0.00000000		13.86008592		 0.00014441		 0.00028888		 0.00046605	
O		1.45599396		0.75920491		8.61752429		 0.00002570		-0.00020145		 0.00015636	
O		-0.14101194		1.76264973		11.50747416		-0.00002570		 0.00020145		-0.00015636	
O		1.45599396		0.75920491		1.44497478		 0.00008370		-0.00020727		-0.00051796	
O		-0.14101194		1.76264973		18.68002367		-0.00008370		 0.00020727		 0.00051796	
O		-0.14101194		1.76264973		3.79758777		-0.00003955		 0.00026383		 0.00015450	
O		1.45599396		0.75920491		16.32741099		 0.00003955		-0.00026383		-0.00015450	
H		1.45599396		0.75920491		9.60767431		-0.00019844		 0.00023572		-0.00004923	
H		-0.14101194		1.76264973		10.51732414		 0.00019844		-0.00023572		 0.00004923	
H		1.45599396		0.75920491		0.45482507		 0.00056073		 0.00024011		-0.00028516	
H		-0.14101194		1.76264973		19.67017369		-0.00056073		-0.00024011		 0.00028516	
Mg		-0.14101194		1.76264973		7.50461236		 0.00029863		-0.00001207		-0.00051247	
Mg		1.45599396		0.75920491		12.62038609		-0.00029863		 0.00001207		 0.00051247	
Mg		0.00000000		0.00000000		2.55788794		-0.00061654		-0.00017966		 0.00008963	
Mg		0.00000000		0.00000000		17.56711174		 0.00061654		 0.00017966		-0.00008963	
Mg		1.45599396		0.75920491		5.03326161		-0.00027104		 0.00001259		-0.00016971	
Mg		-0.14101194		1.76264973		15.09173592		 0.00027104		-0.00001259		 0.00016971	
