# total energy = -4022.51179977 eV	

CRYSTAL	
PRIMVEC	
		3.94517795		0.00000000		0.00000000	
		0.00000000		3.94517795		0.00000000	
		0.00000000		0.00000000		3.94517795	
PRIMCOORD
   5 1	
Ca		0.00000000		0.00000000		0.00000000		0.00000000		0.00000000		0.00000000	
Mg		1.97258898		1.97258898		1.97258898		0.00000000		0.00000000		0.00000000	
O		1.97258898		1.97258898		0.00000000		0.00000000		0.00000000		0.00000000	
O		1.97258898		0.00000000		1.97258898		0.00000000		0.00000000		0.00000000	
O		0.00000000		1.97258898		1.97258898		0.00000000		0.00000000		0.00000000	
