# total energy = -92495.5988407 eV

CRYSTAL
PRIMVEC
		18.49999946		0.00000000		0.00000000
		0.00000000		17.89998897		-0.71600548
		0.00000000		-0.21080749		5.27000235
PRIMECORD
   164 1
Mg		2.40499993		2.96289331		1.88088014		-0.00026224		 0.00046529		 0.00003060
Mg		16.09499953		14.72629372		2.67312042		 0.00026224		-0.00046529		-0.00003060
Mg		6.84499980		14.67148747		4.04331918		-0.00009049		-0.00050500		 0.00003524
Mg		11.65499966		3.01770141		0.51067954		 0.00009049		 0.00050500		-0.00003524
Mg		16.09499953		11.86229770		2.78767982		-0.00009049		 0.00050500		-0.00003524
Mg		2.40499993		5.82689118		1.76632075		 0.00009049		-0.00050500		 0.00003524
Mg		11.65499966		5.88169928		0.39612014		-0.00026224		-0.00046529		-0.00003060
Mg		6.84499980		11.80748960		4.15788043		 0.00026224		 0.00046529		 0.00003060
Mg		2.40499993		1.24860381		4.52761957		 0.00027889		-0.00020852		 0.00015263
Mg		16.09499953		16.44058692		0.02637915		-0.00027889		 0.00020852		-0.00015263
Mg		6.84499980		16.38999497		1.29117971		 0.00042850		 0.00015552		 0.00008025
Mg		11.65499966		1.29919576		3.26281900		-0.00042850		-0.00015552		-0.00008025
Mg		16.09499953		10.35459030		0.26982064		 0.00042850		-0.00015552		-0.00008025
Mg		2.40499993		7.33460043		4.28417992		-0.00042850		 0.00015552		 0.00008025
Mg		11.65499966		7.38519238		3.01937936		 0.00027889		 0.00020852		-0.00015263
Mg		6.84499980		10.30399835		1.53461935		-0.00027889		-0.00020852		 0.00015263
Mg		2.40499993		17.46188679		1.30091996		 0.00064700		 0.00037831		-0.00051426
Mg		16.09499953		0.22730394		3.25308060		-0.00064700		-0.00037831		 0.00051426
Mg		6.84499980		0.17249584		4.62327936		 0.00004886		 0.00051032		-0.00019853
Mg		11.65499966		17.51669489		-0.06928065		-0.00004886		-0.00051032		 0.00019853
Mg		16.09499953		8.46129850		2.92371956		 0.00004886		-0.00051032		 0.00019853
Mg		2.40499993		9.22789038		1.63027915		-0.00004886		 0.00051032		-0.00019853
Mg		11.65499966		9.28269848		0.26008039		 0.00064700		-0.00037831		 0.00051426
Mg		6.84499980		8.40649040		4.29392017		-0.00064700		 0.00037831		-0.00051426
Mg		2.40499993		4.29160212		4.40590067		-0.00001843		-0.00012910		 0.00049374
Mg		16.09499953		13.39758861		0.14809990		 0.00001843		 0.00012910		-0.00049374
Mg		6.84499980		13.34699666		1.41290046		 0.00001843		-0.00012910		 0.00049374
Mg		11.65499966		4.34219407		3.14110011		-0.00001843		 0.00012910		-0.00049374
Si		0.55499998		14.61685882		0.94118007		 0.00043098		-0.00014594		 0.00001551
Si		17.94500132		3.07233006		3.61282049		-0.00043098		 0.00014594		-0.00001551
Si		8.69499974		3.05546546		4.03442068		-0.00022904		-0.00003274		 0.00029426
Si		9.80499786		14.63372342		0.51957988		 0.00022904		 0.00003274		-0.00029426
Si		17.94500132		5.57832889		3.51258010		-0.00022904		 0.00003274		-0.00029426
Si		0.55499998		12.11085999		1.04142047		 0.00022904		-0.00003274		 0.00029426
Si		9.80499786		12.12772459		0.61982028		 0.00043098		 0.00014594		-0.00001551
Si		8.69499974		5.56146429		3.93418028		-0.00043098		-0.00014594		 0.00001551
Si		0.55499998		16.30145767		3.50458070		-0.00006376		-0.00022110		-0.00016717
Si		17.94500132		1.38773121		1.04941987		 0.00006376		 0.00022110		 0.00016717
Si		8.69499974		1.37086661		1.47102006		 0.00039547		-0.00000126		 0.00018442
Si		9.80499786		16.31832227		3.08298051		-0.00039547		 0.00000126		-0.00018442
Si		17.94500132		7.47372783		0.80598023		 0.00039547		 0.00000126		-0.00018442
Si		0.55499998		10.21546105		3.74802034		-0.00039547		-0.00000126		 0.00018442
Si		9.80499786		10.23232565		3.32642015		-0.00006376		 0.00022110		 0.00016717
Si		8.69499974		7.45686323		1.22758041		 0.00006376		-0.00022110		-0.00016717
Si		4.06999988		16.45955867		-0.44792014		-0.00057850		 0.00001435		-0.00002509
Si		14.42999773		1.22963021		5.00192070		 0.00057850		-0.00001435		 0.00002509
Si		5.17999985		1.31816751		2.78851972		-0.00015564		 0.00003612		 0.00010392
Si		13.32000146		16.37102322		1.76548085		 0.00015564		-0.00003612		-0.00010392
Si		14.42999773		7.31562869		4.75847921		-0.00015564		-0.00003612		-0.00010392
Si		4.06999988		10.37356205		-0.20448049		 0.00015564		 0.00003612		 0.00010392
Si		13.32000146		10.28502660		2.00892049		-0.00057850		-0.00001435		 0.00002509
Si		5.17999985		7.40416413		2.54508008		 0.00057850		 0.00001435		-0.00002509
Si		4.06999988		14.56415972		2.25867973		 0.00017100		-0.00010204		 0.00008751
Si		14.42999773		3.12502916		2.29532083		-0.00017100		 0.00010204		-0.00008751
Si		5.17999985		3.21356646		0.08191985		 0.00000797		 0.00000488		 0.00031555
Si		13.32000146		14.47562428		4.47208072		-0.00000797		-0.00000488		-0.00031555
Si		14.42999773		5.63102798		2.19508044		 0.00000797		-0.00000488		-0.00031555
Si		4.06999988		12.05816090		2.35892013		-0.00000797		 0.00000488		 0.00031555
Si		13.32000146		11.96962545		4.57231927		 0.00017100		 0.00010204		-0.00008751
Si		5.17999985		5.71956528		-0.01832055		-0.00017100		-0.00010204		 0.00008751
O		1.10999997		1.21083976		1.00388027		-0.00001786		 0.00021136		-0.00038075
O		17.38999949		16.47835097		3.55012030		 0.00001786		-0.00021136		 0.00038075
O		8.13999976		16.49942987		3.02312006		-0.00025358		-0.00024700		 0.00017171
O		10.35999970		1.18975902		1.53088051		 0.00025358		 0.00024700		-0.00017171
O		17.38999949		10.03435346		3.80788079		-0.00025358		 0.00024700		-0.00017171
O		1.10999997		7.65483543		0.74611978		 0.00025358		-0.00024700		 0.00017171
O		10.35999970		7.63375653		1.27312001		-0.00001786		-0.00021136		 0.00038075
O		8.13999976		10.05543420		3.28088055		 0.00001786		 0.00021136		-0.00038075
O		1.10999997		3.07443721		3.56011955		-0.00050706		 0.00032394		-0.00008907
O		17.38999949		14.61475167		0.99387917		 0.00050706		-0.00032394		 0.00008907
O		8.13999976		14.63583242		0.46688079		 0.00047744		 0.00038107		 0.00015531
O		10.35999970		3.05335831		4.08711978		-0.00047744		-0.00038107		-0.00015531
O		17.38999949		12.10875284		1.09411957		 0.00047744		-0.00038107		-0.00015531
O		1.10999997		5.58043604		3.45987915		-0.00047744		 0.00038107		 0.00015531
O		10.35999970		5.55935714		3.98687938		-0.00050706		-0.00032394		 0.00008907
O		8.13999976		12.12983174		0.56711933		 0.00050706		 0.00032394		-0.00008907
O		1.10999997		13.38283301		0.51699913		-0.00005668		-0.00017551		-0.00028396
O		17.38999949		4.30635772		4.03699958		 0.00005668		 0.00017551		 0.00028396
O		8.13999976		4.32743847		3.50999935		 0.00005668		-0.00017551		-0.00028396
O		10.35999970		13.36175226		1.04399937		-0.00005668		 0.00017551		 0.00028396
O		1.10999997		4.43283852		0.87500002		 0.00022506		 0.00010734		-0.00020769
O		17.38999949		13.25635221		3.67900054		-0.00022506		-0.00010734		 0.00020769
O		8.13999976		13.27743296		3.15200031		-0.00022506		 0.00010734		-0.00020769
O		10.35999970		4.41175777		1.40200026		 0.00022506		-0.00010734		 0.00020769
O		1.10999997		-0.14755970		3.68899979		 0.00031540		-0.00046590		 0.00007400
O		17.38999949		-0.06324040		1.58100070		-0.00031540		 0.00046590		-0.00007400
O		8.13999976		-0.04215965		1.05400047		-0.00014308		 0.00011047		 0.00020043
O		10.35999970		-0.16864045		4.21600003		 0.00014308		-0.00011047		-0.00020043
O		17.38999949		8.88675409		1.22299981		-0.00014308		-0.00011047		-0.00020043
O		1.10999997		8.80243479		3.33100075		 0.00014308		 0.00011047		 0.00020043
O		10.35999970		8.78135404		3.85799914		 0.00031540		 0.00046590		-0.00007400
O		8.13999976		8.90783484		0.69599958		-0.00031540		-0.00046590		 0.00007400
O		0.92499997		15.56245114		-0.35941984		 0.00007150		-0.00017554		-0.00008213
O		17.57499948		2.12673959		4.91342041		-0.00007150		 0.00017554		 0.00008213
O		8.32499976		2.21105889		2.80541947		 0.00061349		-0.00027998		 0.00010878
O		10.17499970		15.47813000		1.74857925		-0.00061349		 0.00027998		-0.00010878
O		17.57499948		6.42273546		4.74157946		 0.00061349		 0.00027998		-0.00010878
O		0.92499997		11.26645342		-0.18758074		-0.00061349		-0.00027998		 0.00010878
O		10.17499970		11.18213412		1.92042019		 0.00007150		 0.00017554		 0.00008213
O		8.32499976		6.50705661		2.63358037		-0.00007150		-0.00017554		-0.00008213
O		0.92499997		15.45915825		2.22288038		 0.00024097		 0.00012724		-0.00021284
O		17.57499948		2.23003063		2.33112018		-0.00024097		-0.00012724		 0.00021284
O		8.32499976		2.31856608		0.11771920		-0.00042648		-0.00019893		 0.00015832
O		10.17499970		15.37062280		4.43628137		 0.00042648		 0.00019893		-0.00015832
O		17.57499948		6.52602836		2.15927924		-0.00042648		 0.00019893		-0.00015832
O		0.92499997		11.16316237		2.39471948		 0.00042648		-0.00019893		 0.00015832
O		10.17499970		11.07462508		4.60812046		 0.00024097		-0.00012724		 0.00021284
O		8.32499976		6.61456381		-0.05411990		-0.00024097		 0.00012724		-0.00021284
O		3.51499990		3.21145746		0.13462080		 0.00011325		 0.00039123		 0.00076086
O		14.98499956		14.47773143		4.41937977		-0.00011325		-0.00039123		-0.00076086
O		5.73499983		14.56205072		2.31138068		 0.00017760		 0.00005908		 0.00009065
O		12.76499963		3.12713816		2.24261988		-0.00017760		-0.00005908		-0.00009065
O		14.98499956		11.97173260		4.51962017		 0.00017760		-0.00005908		-0.00009065
O		3.51499990		5.71745628		0.03438040		-0.00017760		 0.00005908		 0.00009065
O		12.76499963		5.63313698		2.14237949		 0.00011325		-0.00039123		-0.00076086
O		5.73499983		12.05605190		2.41161923		-0.00011325		 0.00039123		 0.00076086
O		3.51499990		1.13495092		2.90107926		-0.00019238		 0.00016989		-0.00015235
O		14.98499956		16.55423796		1.65291945		 0.00019238		-0.00016989		 0.00015235
O		5.73499983		16.63434296		-0.34967959		-0.00085377		 0.00052247		-0.00041906
O		12.76499963		1.05484777		4.90368016		 0.00085377		-0.00052247		 0.00041906
O		14.98499956		10.11024230		1.91067994		-0.00085377		-0.00052247		 0.00041906
O		3.51499990		7.57894843		2.64332062		 0.00085377		 0.00052247		-0.00041906
O		12.76499963		7.49884343		4.64591966		-0.00019238		-0.00016989		 0.00015235
O		5.73499983		10.19034545		-0.09191910		 0.00019238		 0.00016989		-0.00015235
O		3.51499990		-0.01053945		0.26349919		-0.00016828		 0.00011731		 0.00012929
O		14.98499956		-0.20026064		5.00649945		 0.00016828		-0.00011731		-0.00012929
O		5.73499983		-0.11593950		2.89850036		 0.00025179		 0.00034010		 0.00029080
O		12.76499963		-0.09486060		2.37150013		-0.00025179		-0.00034010		-0.00029080
O		14.98499956		8.74973384		4.64850041		 0.00025179		-0.00034010		-0.00029080
O		3.51499990		8.93945504		-0.09449985		-0.00025179		 0.00034010		 0.00029080
O		12.76499963		8.85513389		2.01349924		-0.00016828		-0.00011731		-0.00012929
O		5.73499983		8.83405499		2.54049948		 0.00016828		 0.00011731		 0.00012929
O		3.51499990		13.33013206		1.83450065		 0.00066192		 0.00009415		 0.00020840
O		14.98499956		4.35905867		2.71949992		-0.00066192		-0.00009415		-0.00020840
O		5.73499983		4.27473752		4.82749901		-0.00066192		 0.00009415		 0.00020840
O		12.76499963		13.41445321		-0.27350029		 0.00066192		-0.00009415		-0.00020840
O		3.51499990		4.35905867		2.71949992		-0.00024895		-0.00030573		-0.00052090
O		14.98499956		13.33013206		1.83450065		 0.00024895		 0.00030573		 0.00052090
O		5.73499983		13.41445321		-0.27350029		 0.00024895		-0.00030573		-0.00052090
O		12.76499963		4.27473752		4.82749901		-0.00024895		 0.00030573		 0.00052090
O		3.69999989		15.50975019		0.95807982		 0.00018512		-0.00002939		 0.00020778
O		14.79999957		2.17943869		3.59592074		-0.00018512		 0.00002939		-0.00020778
O		5.54999984		2.15835979		4.12291913		-0.00001822		 0.00023950		 0.00006882
O		12.94999962		15.53083094		0.43107959		 0.00001822		-0.00023950		-0.00006882
O		14.79999957		6.47543641		3.42407980		-0.00001822		-0.00023950		-0.00006882
O		3.69999989		11.21375432		1.12992077		 0.00001822		 0.00023950		 0.00006882
O		12.94999962		11.23483322		0.60292053		 0.00018512		 0.00002939		-0.00020778
O		5.54999984		6.45435566		3.95108003		-0.00018512		-0.00002939		 0.00020778
O		3.69999989		15.40435015		3.59307914		 0.00003559		-0.00019550		-0.00016535
O		14.79999957		2.28483873		0.96091957		-0.00003559		 0.00019550		 0.00016535
O		5.54999984		2.26375983		1.48791981		 0.00002960		 0.00025894		 0.00053571
O		12.94999962		15.42543090		3.06608076		-0.00002960		-0.00025894		-0.00053571
O		14.79999957		6.58083646		0.78908048		 0.00002960		-0.00025894		-0.00053571
O		3.69999989		11.10835427		3.76492009		-0.00002960		 0.00025894		 0.00053571
O		12.94999962		11.12943317		3.23791985		 0.00003559		 0.00019550		 0.00016535
O		5.54999984		6.55975571		1.31608071		-0.00003559		-0.00019550		-0.00016535
H		17.94500132		-0.03162020		0.79049943		-0.00012234		-0.00009286		 0.00045096
H		0.55499813		-0.17917989		4.47949922		 0.00012234		 0.00009286		-0.00045096
H		9.80499786		-0.13702025		3.42550060		 0.00024920		-0.00001140		-0.00060667
H		8.69500159		-0.07377985		1.84449990		-0.00024920		 0.00001140		 0.00060667
H		0.55499813		8.77081459		4.12150018		 0.00024920		 0.00001140		 0.00060667
H		17.94500132		8.91837429		0.43250039		-0.00024920		-0.00001140		-0.00060667
H		8.69500159		8.87621464		1.48650086		-0.00012234		 0.00009286		-0.00045096
H		9.80499786		8.81297424		3.06749971		 0.00012234		-0.00009286		 0.00045096
