# total energy = -92477.6960672 eV

CRYSTAL
PRIMVEC
		18.49999946		0.00000000		0.00000000
		0.00000000		17.89998897		2.86400342
		0.00000000		0.84319298		5.27000235
PRIMECORD
   164 1
Mg		2.40499993		3.36341460		2.48948018		-0.00082568		 0.00009376		-0.00062303
Mg		16.09499953		15.37977475		5.64451818		 0.00082568		-0.00009376		 0.00062303
Mg		6.84499980		15.59900714		7.01471879		 0.00077093		-0.00013309		 0.00062669
Mg		11.65499966		3.14418221		1.11927957		-0.00077093		 0.00013309		-0.00062669
Mg		16.09499953		12.51577688		5.18627875		 0.00077093		 0.00013309		-0.00062669
Mg		2.40499993		6.22741247		2.94771961		-0.00077093		-0.00013309		 0.00062669
Mg		11.65499966		6.00818007		1.57751900		-0.00082568		-0.00009376		 0.00062303
Mg		6.84499980		12.73500928		6.55647936		 0.00082568		 0.00009376		-0.00062303
Mg		2.40499993		2.16558219		4.81401991		 0.00073204		-0.00041753		 0.00000975
Mg		16.09499953		16.57760716		3.31997845		-0.00073204		 0.00041753		-0.00000975
Mg		6.84499980		16.77997496		4.58477902		 0.00045662		-0.00027741		-0.00019286
Mg		11.65499966		1.96321439		3.54921935		-0.00045662		 0.00027741		 0.00019286
Mg		16.09499953		10.49161054		2.34621803		 0.00045662		 0.00027741		 0.00019286
Mg		2.40499993		8.25158066		5.78777848		-0.00045662		-0.00027741		-0.00019286
Mg		11.65499966		8.04921101		4.52297977		 0.00073204		 0.00041753		-0.00000975
Mg		6.84499980		10.69397834		3.61101859		-0.00073204		-0.00041753		 0.00000975
Mg		2.40499993		17.86240623		4.80931721		 0.00067020		-0.00059726		 0.00018977
Mg		16.09499953		0.88078312		3.32467930		-0.00067020		 0.00059726		-0.00018977
Mg		6.84499980		1.10001552		4.69487991		-0.00088044		-0.00005187		-0.00071983
Mg		11.65499966		17.64317383		3.43911845		 0.00088044		 0.00005187		 0.00071983
Mg		16.09499953		9.11477953		4.64211976		-0.00088044		 0.00005187		 0.00071983
Mg		2.40499993		9.62840982		3.49187860		 0.00088044		-0.00005187		-0.00071983
Mg		11.65499966		9.40917927		2.12167984		 0.00067020		 0.00059726		-0.00018977
Mg		6.84499980		9.33401008		6.01231852		-0.00067020		-0.00059726		 0.00018977
Mg		2.40499993		5.20858235		5.30089919		 0.00105159		-0.00103491		-0.00041922
Mg		16.09499953		13.53460885		2.83309917		-0.00105159		 0.00103491		 0.00041922
Mg		6.84499980		13.73697665		4.09789973		-0.00105159		-0.00103491		-0.00041922
Mg		11.65499966		5.00621455		4.03610048		 0.00105159		 0.00103491		 0.00041922
Si		0.55499998		14.92251951		3.87677849		-0.00038798		 0.00012798		-0.00031814
Si		17.94500132		3.82066984		4.25721988		 0.00038798		-0.00012798		 0.00031814
Si		8.69499974		3.88812639		4.67882006		-0.00038161		 0.00038998		-0.00006235
Si		9.80499786		14.85506296		3.45517830		 0.00038161		-0.00038998		 0.00006235
Si		17.94500132		6.32666866		4.65817961		-0.00038161		-0.00038998		 0.00006235
Si		0.55499998		12.41652069		3.47581875		 0.00038161		 0.00038998		-0.00006235
Si		9.80499786		12.34906414		3.05421856		-0.00038798		-0.00012798		 0.00031814
Si		8.69499974		6.39412521		5.07977795		 0.00038798		 0.00012798		-0.00031814
Si		0.55499998		17.13411860		6.79817815		-0.00075873		-0.00009943		-0.00031787
Si		17.94500132		1.60907075		1.33582021		 0.00075873		 0.00009943		 0.00031787
Si		8.69499974		1.67652730		1.75742040		 0.00028438		-0.00007405		 0.00013255
Si		9.80499786		17.06666205		6.37657796		-0.00028438		 0.00007405		-0.00013255
Si		17.94500132		7.69506737		2.30957878		 0.00028438		 0.00007405		-0.00013255
Si		0.55499998		11.04812198		5.82441958		-0.00028438		-0.00007405		 0.00013255
Si		9.80499786		10.98066543		5.40281939		-0.00075873		 0.00009943		 0.00031787
Si		8.69499974		7.76252392		2.73117897		 0.00075873		-0.00009943		-0.00031787
Si		4.06999988		16.50171832		2.84567917		-0.00043375		 0.00008261		-0.00039714
Si		14.42999773		2.24147103		5.28831919		 0.00043375		-0.00008261		 0.00039714
Si		5.17999985		1.88732739		3.07492006		 0.00111419		-0.00002834		-0.00044576
Si		13.32000146		16.85586196		5.05907830		-0.00111419		 0.00002834		 0.00044576
Si		14.42999773		8.32746766		6.26207962		 0.00111419		 0.00002834		 0.00044576
Si		4.06999988		10.41572169		1.87191875		-0.00111419		-0.00002834		-0.00044576
Si		13.32000146		10.76986533		4.08531973		-0.00043375		-0.00008261		 0.00039714
Si		5.17999985		7.97332402		4.04867863		 0.00043375		 0.00008261		-0.00039714
Si		4.06999988		15.13331961		5.19427815		-0.00060911		 0.00062305		-0.00050949
Si		14.42999773		3.60986974		2.93972021		 0.00060911		-0.00062305		 0.00050949
Si		5.17999985		3.25572610		0.72631923		 0.00058251		 0.00019209		-0.00036373
Si		13.32000146		15.48746325		7.40767913		-0.00058251		-0.00019209		 0.00036373
Si		14.42999773		6.11586857		3.34067995		 0.00058251		-0.00019209		 0.00036373
Si		4.06999988		12.62732078		4.79331841		-0.00058251		 0.00019209		-0.00036373
Si		13.32000146		12.98146442		7.00671939		-0.00060911		-0.00062305		 0.00050949
Si		5.17999985		5.76172493		1.12727897		 0.00060911		 0.00062305		-0.00050949
O		1.10999997		1.42163986		1.25447941		 0.00082546		 0.00024127		 0.00072105
O		17.38999949		17.32155134		6.87951895		-0.00082546		-0.00024127		-0.00072105
O		8.13999976		17.23723019		6.35251871		-0.00072770		 0.00033977		 0.00019770
O		10.35999970		1.50595916		1.78147965		 0.00072770		-0.00033977		-0.00019770
O		17.38999949		10.87755383		5.84847883		-0.00072770		-0.00033977		-0.00019770
O		1.10999997		7.86563552		2.28551953		 0.00072770		 0.00033977		 0.00019770
O		10.35999970		7.94995667		2.81251977		 0.00082546		-0.00024127		-0.00072105
O		8.13999976		10.79323453		5.32147859		-0.00082546		 0.00024127		 0.00072105
O		1.10999997		3.81223754		4.20452078		-0.00038206		-0.00102721		 0.00029956
O		17.38999949		14.93095181		3.92947943		 0.00038206		 0.00102721		-0.00029956
O		8.13999976		14.84663066		3.40247920		-0.00034246		 0.00025550		 0.00120472
O		10.35999970		3.89655869		4.73151916		 0.00034246		-0.00025550		-0.00120472
O		17.38999949		12.42495299		3.52851970		-0.00034246		-0.00025550		-0.00120472
O		1.10999997		6.31823636		4.60547866		 0.00034246		 0.00025550		 0.00120472
O		10.35999970		6.40255751		5.13248075		-0.00038206		 0.00102721		-0.00029956
O		8.13999976		12.34063184		3.00151946		 0.00038206		-0.00102721		 0.00029956
O		1.10999997		13.59363310		3.20199841		-0.00176856		-0.00117517		 0.00039651
O		17.38999949		5.14955810		4.93199996		 0.00176856		 0.00117517		-0.00039651
O		8.13999976		5.06523695		4.40499972		 0.00176856		-0.00117517		 0.00039651
O		10.35999970		13.67795240		3.72899864		-0.00176856		 0.00117517		-0.00039651
O		1.10999997		4.64363861		1.77000040		-0.00009233		 0.00058425		 0.00079683
O		17.38999949		14.09955259		6.36399796		 0.00009233		-0.00058425		-0.00079683
O		8.13999976		14.01523329		5.83699958		 0.00009233		 0.00058425		 0.00079683
O		10.35999970		4.72795791		2.29700063		-0.00009233		-0.00058425		-0.00079683
O		1.10999997		0.59024063		3.68899979		-0.00044062		-0.00079629		-0.00048928
O		17.38999949		0.25295974		1.58100070		 0.00044062		 0.00079629		 0.00048928
O		8.13999976		0.16864045		1.05400047		-0.00020085		 0.00025435		 0.00100170
O		10.35999970		0.67455993		4.21600003		 0.00020085		-0.00025435		-0.00100170
O		17.38999949		9.20295423		3.01299871		-0.00020085		-0.00025435		-0.00100170
O		1.10999997		9.54023512		5.12099965		 0.00020085		 0.00025435		 0.00100170
O		10.35999970		9.62455442		5.64799803		-0.00044062		 0.00079629		 0.00048928
O		8.13999976		9.11863493		2.48599848		 0.00044062		-0.00079629		-0.00048928
O		0.92499997		15.61515024		2.75517902		-0.00046412		-0.00014196		 0.00080260
O		17.57499948		3.12803911		5.37881934		 0.00046412		 0.00014196		-0.00080260
O		8.32499976		2.79075822		3.27082025		 0.00024308		 0.00026605		-0.00056750
O		10.17499970		15.95243113		4.86317811		-0.00024308		-0.00026605		 0.00056750
O		17.57499948		7.42403498		6.06617942		 0.00024308		-0.00026605		 0.00056750
O		0.92499997		11.31915437		2.06781894		-0.00024308		 0.00026605		-0.00056750
O		10.17499970		11.65643341		4.17581803		-0.00046412		 0.00014196		-0.00080260
O		8.32499976		7.08675594		3.95817848		 0.00046412		-0.00014196		 0.00080260
O		0.92499997		16.02831813		5.33747739		-0.00018756		 0.00012650		-0.00032441
O		17.57499948		2.71487122		2.79651912		 0.00018756		-0.00012650		 0.00032441
O		8.32499976		2.36072758		0.58311998		 0.00005826		-0.00023403		-0.00009571
O		10.17499970		16.38246177		7.55087838		-0.00005826		 0.00023403		 0.00009571
O		17.57499948		7.01086709		3.48387920		 0.00005826		 0.00023403		 0.00009571
O		0.92499997		11.73232226		4.65011916		-0.00005826		-0.00023403		-0.00009571
O		10.17499970		12.08646590		6.86351830		-0.00018756		-0.00012650		 0.00032441
O		8.32499976		6.65672345		1.27047821		 0.00018756		 0.00012650		-0.00032441
O		3.51499990		3.26415840		0.77902018		-0.00002050		 0.00028448		-0.00152536
O		14.98499956		15.47903095		7.35497818		 0.00002050		-0.00028448		 0.00152536
O		5.73499983		15.14175191		5.24697910		-0.00033314		 0.00017119		-0.00044193
O		12.76499963		3.60143744		2.88701927		 0.00033314		-0.00017119		 0.00044193
O		14.98499956		12.97303212		6.95401845		-0.00033314		-0.00017119		 0.00044193
O		3.51499990		5.77015723		1.17997807		 0.00033314		 0.00017119		-0.00044193
O		12.76499963		6.10743627		3.28797900		-0.00002050		-0.00028448		 0.00152536
O		5.73499983		12.63575308		4.84601936		 0.00002050		 0.00028448		-0.00152536
O		3.51499990		1.72519155		3.15168026		 0.00077076		 0.00043264		 0.00174759
O		14.98499956		17.01799780		4.98231810		-0.00077076		-0.00043264		-0.00174759
O		5.73499983		16.69758336		2.97971906		-0.00054100		-0.00008815		 0.00014069
O		12.76499963		2.04560784		5.15427930		 0.00054100		 0.00008815		-0.00014069
O		14.98499956		10.57400214		3.95127798		-0.00054100		 0.00008815		-0.00014069
O		3.51499990		8.16918721		4.18271853		 0.00054100		-0.00008815		 0.00014069
O		12.76499963		8.48960350		6.18531942		 0.00077076		-0.00043264		-0.00174759
O		5.73499983		10.25358585		1.94867894		-0.00077076		 0.00043264		 0.00174759
O		3.51499990		0.04215965		0.26349919		-0.00052885		 0.00027790		 0.00057061
O		14.98499956		0.80104073		5.00649945		 0.00052885		-0.00027790		-0.00057061
O		5.73499983		0.46375984		2.89850036		 0.00022196		-0.00058749		 0.00069760
O		12.76499963		0.37944054		2.37150013		-0.00022196		 0.00058749		-0.00069760
O		14.98499956		9.75103521		6.43849931		 0.00022196		 0.00058749		-0.00069760
O		3.51499990		8.99215414		1.69549905		-0.00022196		-0.00058749		 0.00069760
O		12.76499963		9.32943503		3.80349814		-0.00052885		-0.00027790		-0.00057061
O		5.73499983		9.41375432		4.33049837		 0.00052885		 0.00027790		 0.00057061
O		3.51499990		13.80443319		4.51949807		-0.00004825		-0.00041167		-0.00017039
O		14.98499956		4.93875801		3.61450029		 0.00004825		 0.00041167		 0.00017039
O		5.73499983		5.27603705		5.72249938		 0.00004825		-0.00041167		-0.00017039
O		12.76499963		13.46715230		2.41149898		-0.00004825		 0.00041167		 0.00017039
O		3.51499990		4.93875801		3.61450029		 0.00112304		 0.00058020		 0.00043717
O		14.98499956		13.80443319		4.51949807		-0.00112304		-0.00058020		-0.00043717
O		5.73499983		13.46715230		2.41149898		-0.00112304		 0.00058020		 0.00043717
O		12.76499963		5.27603705		5.72249938		 0.00112304		-0.00058020		-0.00043717
O		3.69999989		15.82595034		4.07267868		-0.00006176		 0.00023124		 0.00018174
O		14.79999957		2.91723901		4.06131968		 0.00006176		-0.00023124		-0.00018174
O		5.54999984		3.00155831		4.58831992		-0.00079791		-0.00081458		 0.00014569
O		12.94999962		15.74163104		3.54567845		 0.00079791		 0.00081458		-0.00014569
O		14.79999957		7.21323489		4.74867976		-0.00079791		 0.00081458		-0.00014569
O		3.69999989		11.52995446		3.38531860		 0.00079791		-0.00081458		 0.00014569
O		12.94999962		11.44563331		2.85831837		-0.00006176		-0.00023124		-0.00018174
O		5.54999984		7.29755604		5.27567815		 0.00006176		 0.00023124		 0.00018174
O		3.69999989		16.24755052		6.70767800		-0.00056265		-0.00043982		 0.00021556
O		14.79999957		2.49563883		1.42632036		 0.00056265		 0.00043982		-0.00021556
O		5.54999984		2.57995812		1.95332059		 0.00074153		-0.00082630		-0.00001071
O		12.94999962		16.16323123		6.18067962		-0.00074153		 0.00082630		 0.00001071
O		14.79999957		6.79163655		2.11367859		 0.00074153		 0.00082630		 0.00001071
O		3.69999989		11.95155280		6.02031792		-0.00074153		-0.00082630		-0.00001071
O		12.94999962		11.86723350		5.49331954		-0.00056265		 0.00043982		-0.00021556
O		5.54999984		6.87595585		2.64067882		 0.00056265		-0.00043982		 0.00021556
H		17.94500132		0.12648080		0.79049943		-0.00022680		 0.00071958		-0.00060761
H		0.55499813		0.71671958		4.47949922		 0.00022680		-0.00071958		 0.00060761
H		9.80499786		0.54807913		3.42550060		-0.00043076		-0.00000351		-0.00037416
H		8.69500159		0.29511939		1.84449990		 0.00043076		 0.00000351		 0.00037416
H		0.55499813		9.66671407		5.91149908		-0.00043076		 0.00000351		 0.00037416
H		17.94500132		9.07647528		2.22249928		 0.00043076		-0.00000351		-0.00037416
H		8.69500159		9.24511388		3.27649975		-0.00022680		-0.00071958		 0.00060761
H		9.80499786		9.49807547		4.85749861		 0.00022680		 0.00071958		-0.00060761
