# total energy = -92494.3084481 eV

CRYSTAL
PRIMVEC
		18.49999946		0.00000000		0.00000000
		0.00000000		17.89998897		-1.43199246
		0.00000000		-0.42159649		5.27000235
PRIMECORD
   164 1
Mg		2.40499993		2.88279017		1.75915940		 0.00014227		 0.00038823		 0.00039534
Mg		16.09499953		14.59559862		2.07884124		-0.00014227		-0.00038823		-0.00039534
Mg		6.84499980		14.48598242		3.44904000		 0.00005485		 0.00028876		-0.00004110
Mg		11.65499966		2.99240636		0.38896064		-0.00005485		-0.00028876		 0.00004110
Mg		16.09499953		11.73160076		2.30796003		 0.00005485		-0.00028876		 0.00004110
Mg		2.40499993		5.74678803		1.53004061		-0.00005485		 0.00028876		-0.00004110
Mg		11.65499966		5.85640423		0.15984000		 0.00014227		-0.00038823		-0.00039534
Mg		6.84499980		11.62198641		3.67816064		-0.00014227		 0.00038823		 0.00039534
Mg		2.40499993		1.06520777		4.47033987		-0.00013702		 0.00017450		 0.00003941
Mg		16.09499953		16.41318287		-0.63233923		 0.00013702		-0.00017450		-0.00003941
Mg		6.84499980		16.31199897		0.63246133		 0.00034122		 0.00016526		 0.00002973
Mg		11.65499966		1.16639167		3.20553931		-0.00034122		-0.00016526		-0.00002973
Mg		16.09499953		10.32718625		-0.14545995		 0.00034122		-0.00016526		-0.00002973
Mg		2.40499993		7.15120439		3.98346058		-0.00034122		 0.00016526		 0.00002973
Mg		11.65499966		7.25238829		2.71866002		-0.00013702		-0.00017450		-0.00003941
Mg		6.84499980		10.22600235		1.11934062		 0.00013702		 0.00017450		 0.00003941
Mg		2.40499993		17.38178179		0.59924088		 0.00021830		 0.00000207		 0.00007128
Mg		16.09499953		0.09660885		3.23875975		-0.00021830		-0.00000207		-0.00007128
Mg		6.84499980		-0.01300735		4.60896036		-0.00081202		 0.00005684		 0.00026581
Mg		11.65499966		17.49139799		-0.77095973		 0.00081202		-0.00005684		-0.00026581
Mg		16.09499953		8.33060341		2.58003952		-0.00081202		-0.00005684		-0.00026581
Mg		2.40499993		9.14778723		1.25795926		 0.00081202		 0.00005684		 0.00026581
Mg		11.65499966		9.25740158		-0.11223950		 0.00021830		-0.00000207		-0.00007128
Mg		6.84499980		8.22098721		3.95024013		-0.00021830		 0.00000207		 0.00007128
Mg		2.40499993		4.10820608		4.22690023		-0.00016246		 0.00001987		-0.00016408
Mg		16.09499953		13.37018456		-0.38889959		 0.00016246		-0.00001987		 0.00016408
Mg		6.84499980		13.26900066		0.87590097		 0.00016246		 0.00001987		-0.00016408
Mg		11.65499966		4.20938998		2.96209966		-0.00016246		-0.00001987		 0.00016408
Si		0.55499998		14.55572742		0.35406039		-0.00032780		 0.00009272		-0.00001235
Si		17.94500132		2.92266136		3.48394025		 0.00032780		-0.00009272		 0.00001235
Si		8.69499974		2.88893402		3.90554044		-0.00012771		 0.00000868		-0.00007200
Si		9.80499786		14.58945477		-0.06753980		 0.00012771		-0.00000868		 0.00007200
Si		17.94500132		5.42866019		3.28345945		-0.00012771		-0.00000868		 0.00007200
Si		0.55499998		12.04972860		0.55453933		 0.00012771		 0.00000868		-0.00007200
Si		9.80499786		12.08345595		0.13294100		-0.00032780		-0.00009272		 0.00001235
Si		8.69499974		5.39493284		3.70505964		 0.00032780		 0.00009272		-0.00001235
Si		0.55499998		16.13492623		2.84586047		 0.00005578		-0.00041505		-0.00014739
Si		17.94500132		1.34346256		0.99214017		-0.00005578		 0.00041505		 0.00014739
Si		8.69499974		1.30973521		1.41374036		-0.00011278		-0.00003057		-0.00015244
Si		9.80499786		16.16865543		2.42426028		 0.00011278		 0.00003057		 0.00015244
Si		17.94500132		7.42945918		0.50526089		-0.00011278		 0.00003057		 0.00015244
Si		0.55499998		10.04892961		3.33274160		 0.00011278		-0.00003057		-0.00015244
Si		9.80499786		10.08265695		2.91113956		 0.00005578		 0.00041505		 0.00014739
Si		8.69499974		7.39573183		0.92685922		-0.00005578		-0.00041505		-0.00014739
Si		4.06999988		16.45112637		-1.10663852		-0.00005707		 0.00022063		 0.00060679
Si		14.42999773		1.02726242		4.94463915		 0.00005707		-0.00022063		-0.00060679
Si		5.17999985		1.20433516		2.73124002		-0.00078575		-0.00011947		-0.00023178
Si		13.32000146		16.27405362		1.10676062		 0.00078575		 0.00011947		 0.00023178
Si		14.42999773		7.11325904		4.45775987		-0.00078575		 0.00011947		 0.00023178
Si		4.06999988		10.36512975		-0.61975923		 0.00078575		-0.00011947		-0.00023178
Si		13.32000146		10.18805700		1.59364175		-0.00005707		-0.00022063		-0.00060679
Si		5.17999985		7.29033179		2.24436073		 0.00005707		 0.00022063		 0.00060679
Si		4.06999988		14.45032738		1.67156005		-0.00002234		-0.00008966		 0.00037438
Si		14.42999773		3.02806141		2.16644059		 0.00002234		 0.00008966		-0.00037438
Si		5.17999985		3.20513416		-0.04696040		 0.00016474		-0.00059440		-0.00000932
Si		13.32000146		14.27325648		3.88496104		-0.00016474		 0.00059440		 0.00000932
Si		14.42999773		5.53406024		1.96595979		 0.00016474		 0.00059440		 0.00000932
Si		4.06999988		11.94432855		1.87204085		-0.00016474		-0.00059440		-0.00000932
Si		13.32000146		11.76725580		4.08543998		-0.00002234		 0.00008966		-0.00037438
Si		5.17999985		5.71113298		-0.24743934		 0.00002234		-0.00008966		 0.00037438
O		1.10999997		1.16867827		0.95376007		-0.00000374		-0.00021036		-0.00023519
O		17.38999949		16.30971052		2.88424057		 0.00000374		 0.00021036		 0.00023519
O		8.13999976		16.35187017		2.35724033		 0.00029293		-0.00042808		-0.00007497
O		10.35999970		1.12651862		1.48076031		-0.00029293		 0.00042808		 0.00007497
O		17.38999949		9.86571301		3.39976155		 0.00029293		 0.00042808		 0.00007497
O		1.10999997		7.61267578		0.43823909		-0.00029293		-0.00042808		-0.00007497
O		10.35999970		7.57051613		0.96523932		-0.00000374		 0.00021036		 0.00023519
O		8.13999976		9.90787451		2.87275947		 0.00000374		-0.00021036		-0.00023519
O		1.10999997		2.92687751		3.43123930		 0.00048318		 0.00030717		-0.00049788
O		17.38999949		14.55151127		0.40676134		-0.00048318		-0.00030717		 0.00049788
O		8.13999976		14.59367092		-0.12023890		 0.00048753		 0.00007508		 0.00047404
O		10.35999970		2.88471787		3.95823953		-0.00048753		-0.00007508		-0.00047404
O		17.38999949		12.04551245		0.60724028		 0.00048753		-0.00007508		-0.00047404
O		1.10999997		5.43287634		3.23076036		-0.00048753		 0.00007508		 0.00047404
O		10.35999970		5.39071669		3.75776059		 0.00048318		-0.00030717		 0.00049788
O		8.13999976		12.08767210		0.08024005		-0.00048318		 0.00030717		-0.00049788
O		1.10999997		13.34067336		-0.01999850		-0.00026590		-0.00017182		-0.00019390
O		17.38999949		4.13771728		3.85799914		 0.00026590		 0.00017182		 0.00019390
O		8.13999976		4.17987878		3.33100075		 0.00026590		-0.00017182		-0.00019390
O		10.35999970		13.29851186		0.50700174		-0.00026590		 0.00017182		 0.00019390
O		1.10999997		4.39067702		0.69599958		 0.00009875		 0.00034041		 0.00024543
O		17.38999949		13.08771177		3.14200106		-0.00009875		-0.00034041		-0.00024543
O		8.13999976		13.12987326		2.61500082		-0.00009875		 0.00034041		 0.00024543
O		10.35999970		4.34851737		1.22299981		 0.00009875		-0.00034041		-0.00024543
O		1.10999997		-0.29511939		3.68899979		-0.00043560		-0.00017185		-0.00014157
O		17.38999949		-0.12648080		1.58100070		 0.00043560		 0.00017185		 0.00014157
O		8.13999976		-0.08431930		1.05400047		 0.00017741		 0.00011884		-0.00031940
O		10.35999970		-0.33728089		4.21600003		-0.00017741		-0.00011884		 0.00031940
O		17.38999949		8.82351554		0.86500077		 0.00017741		-0.00011884		 0.00031940
O		1.10999997		8.65487510		2.97299986		-0.00017741		 0.00011884		-0.00031940
O		10.35999970		8.61271545		3.50000010		-0.00043560		 0.00017185		 0.00014157
O		8.13999976		8.86567519		0.33800054		 0.00043560		-0.00017185		-0.00014157
O		0.92499997		15.55190984		-0.98233887		-0.00012530		-0.00002168		 0.00026130
O		17.57499948		1.92647894		4.82033951		 0.00012530		 0.00002168		-0.00026130
O		8.32499976		2.09511939		2.71234042		 0.00004788		 0.00044807		-0.00023093
O		10.17499970		15.38327125		1.12566022		-0.00004788		-0.00044807		 0.00023093
O		17.57499948		6.22247667		4.47665947		 0.00004788		-0.00044807		 0.00023093
O		0.92499997		11.25591397		-0.63865883		-0.00004788		 0.00044807		-0.00023093
O		10.17499970		11.08727352		1.46934026		-0.00012530		 0.00002168		-0.00026130
O		8.32499976		6.39111526		2.36866038		 0.00012530		-0.00002168		 0.00026130
O		0.92499997		15.34532590		1.59995950		 0.00082300		-0.00002881		 0.00005035
O		17.57499948		2.13306289		2.23803928		-0.00082300		 0.00002881		-0.00005035
O		8.32499976		2.31013563		0.02464015		 0.00034802		-0.00000577		-0.00011567
O		10.17499970		15.16825500		3.81336049		-0.00034802		 0.00000577		 0.00011567
O		17.57499948		6.42906061		1.89435924		 0.00034802		 0.00000577		 0.00011567
O		0.92499997		11.04933003		1.94363954		-0.00034802		-0.00000577		-0.00011567
O		10.17499970		10.87225728		4.15704053		 0.00082300		 0.00002881		-0.00005035
O		8.32499976		6.60613151		-0.31903989		-0.00082300		-0.00002881		 0.00005035
O		3.51499990		3.20091801		0.00574055		 0.00024166		 0.00051751		 0.00033615
O		14.98499956		14.27747078		3.83226009		-0.00024166		-0.00051751		-0.00033615
O		5.73499983		14.44611123		1.72426100		 0.00004634		 0.00002596		-0.00046779
O		12.76499963		3.03227756		2.11373964		-0.00004634		-0.00002596		 0.00046779
O		14.98499956		11.77147195		4.03273903		 0.00004634		-0.00002596		 0.00046779
O		3.51499990		5.70691683		-0.19474024		-0.00004634		 0.00002596		-0.00046779
O		12.76499963		5.53827639		1.91326069		 0.00024166		-0.00051751		-0.00033615
O		5.73499983		11.94011240		1.92474179		-0.00024166		 0.00051751		 0.00033615
O		3.51499990		1.01690242		2.85095907		-0.00067654		-0.00067673		-0.00033973
O		14.98499956		16.46148637		0.98704157		 0.00067654		 0.00067673		 0.00033973
O		5.73499983		16.62169451		-1.01555932		 0.00004704		 0.00010207		-0.00012442
O		12.76499963		0.85669427		4.85355996		-0.00004704		-0.00010207		 0.00012442
O		14.98499956		10.01748886		1.50256071		 0.00004704		-0.00010207		 0.00012442
O		3.51499990		7.46089993		2.33543993		-0.00004704		 0.00010207		-0.00012442
O		12.76499963		7.30069179		4.33803897		-0.00067654		 0.00067673		 0.00033973
O		5.73499983		10.17769700		-0.50004019		 0.00067654		-0.00067673		-0.00033973
O		3.51499990		-0.02108075		0.26349919		 0.00008018		 0.00023272		 0.00013550
O		14.98499956		-0.40051944		5.00649945		-0.00008018		-0.00023272		-0.00013550
O		5.73499983		-0.23188084		2.89850036		 0.00004204		 0.00038370		 0.00021479
O		12.76499963		-0.18971934		2.37150013		-0.00004204		-0.00038370		-0.00021479
O		14.98499956		8.54947505		4.29049952		 0.00004204		-0.00038370		-0.00021479
O		3.51499990		8.92891559		-0.45250074		-0.00004204		 0.00038370		 0.00021479
O		12.76499963		8.76027514		1.65550020		 0.00008018		-0.00023272		-0.00013550
O		5.73499983		8.71811549		2.18250044		-0.00008018		 0.00023272		 0.00013550
O		3.51499990		13.23527331		1.29750116		 0.00030053		-0.00045575		 0.00013015
O		14.98499956		4.24311733		2.54049948		-0.00030053		 0.00045575		-0.00013015
O		5.73499983		4.07447873		4.64850041		-0.00030053		-0.00045575		 0.00013015
O		12.76499963		13.40391191		-0.81049978		 0.00030053		 0.00045575		-0.00013015
O		3.51499990		4.24311733		2.54049948		-0.00022213		 0.00046599		 0.00022063
O		14.98499956		13.23527331		1.29750116		 0.00022213		-0.00046599		-0.00022063
O		5.73499983		13.40391191		-0.81049978		 0.00022213		 0.00046599		 0.00022063
O		12.76499963		4.07447873		4.64850041		-0.00022213		-0.00046599		-0.00022063
O		3.69999989		15.44650980		0.33516079		 0.00046581		-0.00041565		 0.00019644
O		14.79999957		2.03187899		3.50283985		-0.00046581		 0.00041565		-0.00019644
O		5.54999984		1.98971934		4.02984008		-0.00005318		-0.00019576		-0.00028581
O		12.94999962		15.48867130		-0.19183944		 0.00005318		 0.00019576		 0.00028581
O		14.79999957		6.32787671		3.15915981		-0.00005318		 0.00019576		 0.00028581
O		3.69999989		11.15051392		0.67884083		 0.00005318		-0.00019576		-0.00028581
O		12.94999962		11.19267357		0.15184060		 0.00046581		 0.00041565		-0.00019644
O		5.54999984		6.28571522		3.68616004		-0.00046581		-0.00041565		 0.00019644
O		3.69999989		15.23570970		2.97016011		 0.00038092		 0.00017094		 0.00040635
O		14.79999957		2.24267908		0.86784052		-0.00038092		-0.00017094		-0.00040635
O		5.54999984		2.20051944		1.39484076		 0.00016958		 0.00002867		 0.00017690
O		12.94999962		15.27787120		2.44316173		-0.00016958		-0.00002867		-0.00017690
O		14.79999957		6.53867496		0.52416048		 0.00016958		-0.00002867		-0.00017690
O		3.69999989		10.93971383		3.31384015		-0.00016958		 0.00002867		 0.00017690
O		12.94999962		10.98187348		2.78683992		 0.00038092		-0.00017094		-0.00040635
O		5.54999984		6.49651531		1.05116072		-0.00038092		 0.00017094		 0.00040635
H		17.94500132		-0.06324040		0.79049943		 0.00054225		 0.00039885		 0.00046851
H		0.55499813		-0.35835979		4.47949922		-0.00054225		-0.00039885		-0.00046851
H		9.80499786		-0.27404049		3.42550060		-0.00001088		 0.00053822		-0.00004388
H		8.69500159		-0.14755970		1.84449990		 0.00001088		-0.00053822		 0.00004388
H		0.55499813		8.59163470		3.76350114		-0.00001088		-0.00053822		 0.00004388
H		17.94500132		8.88675409		0.07449950		 0.00001088		 0.00053822		-0.00004388
H		8.69500159		8.80243479		1.12849997		 0.00054225		-0.00039885		-0.00046851
H		9.80499786		8.67595400		2.70950067		-0.00054225		 0.00039885		 0.00046851
