# total energy = -22469.6804323 eV	

CRYSTAL	
PRIMVEC	
		10.22668489		0.00000000		0.00000000	
		0.00000000		8.91740333		0.00000000	
		-1.50713723		0.00000000		5.05028471	
PRIMCOORD
   40 1	
Mg		-0.37678482		8.09771306		1.26257118		-0.00000003		 0.00052232		 0.00000009	
Mg		-1.13035548		0.81968822		3.78771148		 0.00000003		-0.00052232		-0.00000009	
Mg		4.73655762		3.63901344		1.26257118		-0.00000006		 0.00053575		 0.00000011	
Mg		3.98298799		5.27838784		3.78771148		 0.00000006		-0.00053575		-0.00000011	
Ca		-0.37678482		2.68841751		1.26257118		 0.00000004		-0.00077695		 0.00000011	
Ca		-1.13035548		6.22898275		3.78771148		-0.00000004		 0.00077695		-0.00000011	
Ca		4.73655762		7.14711815		1.26257118		 0.00000002		-0.00080489		 0.00000012	
Ca		3.98298799		1.77028211		3.78771148		-0.00000002		 0.00080489		-0.00000012	
Si		2.58109766		0.83101326		1.15833262		 0.00061618		-0.00071388		 0.00040802	
Si		6.13844795		8.08638803		3.89195004		-0.00061618		 0.00071388		-0.00040802	
Si		6.89201759		0.83101326		1.36680871		-0.00061500		-0.00071502		-0.00040741	
Si		1.82752802		8.08638803		3.68347395		 0.00061500		 0.00071502		 0.00040741	
Si		7.69444113		5.28971287		1.15833262		 0.00022257		-0.00092661		 0.00025469	
Si		1.02510449		3.62768841		3.89195004		-0.00022257		 0.00092661		-0.00025469	
Si		1.77867515		5.28971287		1.36680871		-0.00022090		-0.00092801		-0.00025386	
Si		6.94087046		3.62768841		3.68347395		 0.00022090		 0.00092801		 0.00025386	
O		0.96778801		0.77492193		0.71643348		-0.00001496		 0.00053473		-0.00012542	
O		7.75175658		8.14247833		4.33385020		 0.00001496		-0.00053473		 0.00012542	
O		8.50532724		0.77492193		1.80870785		 0.00001423		 0.00053486		 0.00012522	
O		0.21421837		8.14247833		3.24157481		-0.00001423		-0.00053486		-0.00012522	
O		6.08113045		5.23362155		0.71643348		 0.00021693		 0.00055662		-0.00004953	
O		2.63841516		3.68377769		4.33385020		-0.00021693		-0.00055662		 0.00004953	
O		3.39198378		5.23362155		1.80870785		-0.00021788		 0.00055671		 0.00004924	
O		5.32756081		3.68377769		3.24157481		 0.00021788		-0.00055671		-0.00004924	
O		3.21231115		2.23104437		1.60477753		-0.00038367		-0.00080376		-0.00058401	
O		5.50723446		6.68635589		3.44550513		 0.00038367		 0.00080376		 0.00058401	
O		6.26080512		2.23104437		0.92036380		 0.00038322		-0.00080285		 0.00058374	
O		2.45874049		6.68635589		4.12991886		-0.00038322		 0.00080285		-0.00058374	
O		8.32565359		6.68974501		1.60477753		-0.00023604		-0.00058460		-0.00051653	
O		0.39389202		2.22765627		3.44550513		 0.00023604		 0.00058460		 0.00051653	
O		1.14746166		6.68974501		0.92036380		 0.00023535		-0.00058329		 0.00051614	
O		7.57208395		2.22765627		4.12991886		-0.00023535		 0.00058329		-0.00051614	
O		2.08655256		0.15551924		5.02720308		 0.00003358		-0.00037576		 0.00060910	
O		6.63299203		8.76188102		0.02307958		-0.00003358		 0.00037576		-0.00060910	
O		5.87942239		0.15551924		2.54822091		-0.00003354		-0.00037563		-0.00060915	
O		2.84012322		8.76188102		2.50206175		 0.00003354		 0.00037563		 0.00060915	
O		7.19989603		4.61421988		5.02720308		 0.00009691		-0.00037010		 0.00063361	
O		1.51964958		4.30318140		0.02307958		-0.00009691		 0.00037010		-0.00063361	
O		0.76607994		4.61421988		2.54822091		-0.00009679		-0.00037003		-0.00063376	
O		7.95346567		4.30318140		2.50206175		 0.00009679		 0.00037003		 0.00063376	
