# total energy = -22465.6341507 eV	

CRYSTAL	
PRIMVEC	
		8.76572983		0.00000000		0.00000000	
		0.00000000		8.91740325		0.00000000	
		-1.29183190		0.00000000		5.05027882	
PRIMCOORD
   40 1	
Mg		-0.32295929		8.09771284		1.26257102		-0.00000003		 0.00010104		 0.00000002	
Mg		-0.96887612		0.81968778		3.78771218		 0.00000003		-0.00010104		-0.00000002	
Mg		4.05990650		3.63901297		1.26257102		 0.00000016		 0.00013796		-0.00000015	
Mg		3.41398967		5.27838765		3.78771218		-0.00000016		-0.00013796		 0.00000015	
Ca		-0.32295929		2.68841778		1.26257102		-0.00000038		 0.00026906		-0.00000071	
Ca		-0.96887612		6.22898284		3.78771218		 0.00000038		-0.00026906		 0.00000071	
Ca		4.05990650		7.14711765		1.26257102		-0.00000017		 0.00021385		-0.00000039	
Ca		3.41398967		1.77028209		3.78771218		 0.00000017		-0.00021385		 0.00000039	
Si		2.21236853		0.83101310		1.15833334		 0.00020435		 0.00075141		-0.00028408	
Si		5.26152677		8.08638752		3.89194986		-0.00020435		-0.00075141		 0.00028408	
Si		5.90744360		0.83101310		1.36680870		-0.00020632		 0.00075483		 0.00028220	
Si		1.56645170		8.08638752		3.68347363		 0.00020632		-0.00075483		-0.00028220	
Si		6.59523519		5.28971297		1.15833334		-0.00055144		 0.00036269		-0.00061889	
Si		0.87866186		3.62768765		3.89194986		 0.00055144		-0.00036269		 0.00061889	
Si		1.52457868		5.28971297		1.36680870		 0.00053982		 0.00037167		 0.00061135	
Si		5.94931749		3.62768765		3.68347363		-0.00053982		-0.00037167		-0.00061135	
O		0.82953257		0.77492207		0.71643274		-0.00021969		-0.00010239		-0.00026884	
O		6.64436273		8.14247767		4.33384958		 0.00021969		 0.00010239		 0.00026884	
O		7.29027955		0.77492207		1.80870754		 0.00022166		-0.00010285		 0.00026957	
O		0.18361574		8.14247767		3.24157478		-0.00022166		 0.00010285		-0.00026957	
O		5.21239748		5.23362195		0.71643274		 0.00035089		-0.00003381		-0.00007921	
O		2.26149781		3.68377780		4.33384958		-0.00035089		 0.00003381		 0.00007921	
O		2.90741464		5.23362195		1.80870754		-0.00034135		-0.00003470		 0.00008307	
O		4.56648066		3.68377780		3.24157478		 0.00034135		 0.00003470		-0.00008307	
O		2.75340953		2.23104391		1.60477810		-0.00004924		 0.00009144		-0.00000378	
O		4.72048664		6.68635583		3.44550510		 0.00004924		-0.00009144		 0.00000378	
O		5.36640347		2.23104391		0.92036394		 0.00004996		 0.00008892		 0.00000475	
O		2.10749270		6.68635583		4.12991926		-0.00004996		-0.00008892		-0.00000475	
O		7.13627357		6.68974466		1.60477810		 0.00015376		 0.00047300		 0.00010959	
O		0.33762085		2.22765596		3.44550510		-0.00015376		-0.00047300		-0.00010959	
O		0.98353855		6.68974466		0.92036394		-0.00015095		 0.00046483		-0.00010702	
O		6.49035674		2.22765596		4.12991926		 0.00015095		-0.00046483		 0.00010702	
O		1.78847361		0.15551895		5.02720303		-0.00035703		 0.00011623		-0.00077063	
O		5.68542169		8.76188080		0.02308017		 0.00035703		-0.00011623		 0.00077063	
O		5.03950486		0.15551895		2.54822133		 0.00035656		 0.00011542		 0.00077119	
O		2.43439131		8.76188080		2.50206187		-0.00035656		-0.00011542		-0.00077119	
O		6.17133852		4.61421970		5.02720303		-0.00027209		 0.00013893		-0.00072520	
O		1.30255677		4.30318092		0.02308017		 0.00027209		-0.00013893		 0.00072520	
O		0.65663994		4.61421970		2.54822133		 0.00027138		 0.00013831		 0.00072552	
O		6.81725623		4.30318092		2.50206187		-0.00027138		-0.00013831		-0.00072552	
