# total energy = -24716.0218846 eV	

CRYSTAL	
PRIMVEC	
		9.03899958		0.00000000		0.00000000	
		0.00000000		8.69500237		0.00000000	
		0.00000000		0.00000000		5.08900196	
PRIMCOORD
   40 1	
O		1.09371895		0.75124753		0.29974227		-0.00026596		 0.00017128		-0.00002685	
O		1.09371895		7.94375033		2.84424144		-0.00026596		-0.00017128		-0.00002685	
O		5.61321874		5.09874781		2.24475781		-0.00026596		 0.00017128		 0.00002685	
O		5.61321874		3.59625185		4.78925789		-0.00026596		-0.00017128		 0.00002685	
O		3.40679894		2.13896988		0.53739835		 0.00002355		 0.00005137		-0.00010562	
O		3.40679894		6.55602978		3.08189843		 0.00002355		-0.00005137		-0.00010562	
O		7.92629783		6.48646926		2.00710172		 0.00002355		 0.00005137		 0.00010562	
O		7.92629783		2.20852950		4.55160180		 0.00002355		-0.00005137		 0.00010562	
O		3.23415405		8.35502481		1.40456382		-0.00070329		-0.00013012		-0.00046500	
O		3.23415405		0.33997395		3.94906389		-0.00070329		 0.00013012		-0.00046500	
O		7.75365384		4.00752453		1.13993626		-0.00070329		-0.00013012		 0.00046500	
O		7.75365384		4.68747423		3.68443543		-0.00070329		 0.00013012		 0.00046500	
O		7.93985633		7.90114591		4.45338403		 0.00044460		-0.00024083		 0.00010124	
O		7.93985633		0.79385375		1.90888395		 0.00044460		 0.00024083		 0.00010124	
O		3.42035744		3.55364563		3.18011620		 0.00044460		-0.00024083		-0.00010124	
O		3.42035744		5.14135313		0.63561612		 0.00044460		 0.00024083		-0.00010124	
O		5.61683344		6.61080793		4.87882443		 0.00028790		 0.00055683		 0.00023126	
O		5.61683344		2.08419173		2.33432345		 0.00028790		-0.00055683		 0.00023126	
O		1.09733455		2.26330765		2.75467580		 0.00028790		 0.00055683		-0.00023126	
O		1.09733455		6.43169111		0.21017572		 0.00028790		-0.00055683		-0.00023126	
O		5.84280843		8.27503057		2.86103590		-0.00025799		-0.00000307		-0.00026531	
O		5.84280843		0.41996909		0.31653582		-0.00025799		 0.00000307		-0.00026531	
O		1.32330863		3.92753119		4.77246342		-0.00025799		-0.00000307		 0.00026531	
O		1.32330863		4.76746847		2.22796425		-0.00025799		 0.00000307		 0.00026531	
Si		2.68187118		0.77124631		0.34808826		-0.00030023		 0.00017036		-0.00043039	
Si		2.68187118		7.92375245		2.89258743		-0.00030023		-0.00017036		-0.00043039	
Si		7.20137097		5.11874569		2.19641272		-0.00030023		 0.00017036		 0.00043039	
Si		7.20137097		3.57625307		4.74091189		-0.00030023		-0.00017036		 0.00043039	
Si		6.34447381		7.91592648		4.38671779		-0.00010665		-0.00062343		-0.00005515	
Si		6.34447381		0.77907228		1.84221771		-0.00010665		 0.00062343		-0.00005515	
Si		1.82497402		3.56842801		3.24678153		-0.00010665		-0.00062343		 0.00005515	
Si		1.82497402		5.12657166		0.70228236		-0.00010665		 0.00062343		 0.00005515	
Mg		9.01640118		0.83558862		3.64372378		 0.00020644		 0.00006202		 0.00068959	
Mg		9.01640118		7.85940923		1.09922370		 0.00020644		-0.00006202		 0.00068959	
Mg		4.49690139		5.18308891		3.98977555		 0.00020644		 0.00006202		-0.00068959	
Mg		4.49690139		3.51190985		1.44527638		 0.00020644		-0.00006202		-0.00068959	
Mg		0.05423400		2.28417598		1.09464364		 0.00067165		-0.00082792		-0.00038042	
Mg		0.05423400		6.41082368		3.63914371		 0.00067165		 0.00082792		-0.00038042	
Mg		4.57373379		6.63167536		1.44985553		 0.00067165		-0.00082792		 0.00038042	
Mg		4.57373379		2.06332430		3.99435561		 0.00067165		 0.00082792		 0.00038042	
