# total energy = -24715.7680829 eV

CRYSTAL
PRIMVEC
		9.03899958		0.00000000		0.00000000
		0.00000000		9.56449990		0.00000000
		0.00000000		0.00000000		5.08900196
PRIMECORD
   40 1
O		1.09371895		0.82637336		0.29974227		 0.00063208		-0.00060973		-0.00027193
O		1.09371895		8.73812654		2.84424144		 0.00063208		 0.00060973		-0.00027193
O		5.61321874		5.60862241		2.24475781		 0.00063208		-0.00060973		 0.00027193
O		5.61321874		3.95587659		4.78925789		 0.00063208		 0.00060973		 0.00027193
O		3.40679894		2.35286696		0.53739835		 0.00040782		 0.00023342		-0.00046895
O		3.40679894		7.21163294		3.08189843		 0.00040782		-0.00023342		-0.00046895
O		7.92629783		7.13511691		2.00710172		 0.00040782		 0.00023342		 0.00046895
O		7.92629783		2.42938299		4.55160180		 0.00040782		-0.00023342		 0.00046895
O		3.23415405		9.19052756		1.40456382		-0.00076768		 0.00005819		-0.00051160
O		3.23415405		0.37397234		3.94906389		-0.00076768		-0.00005819		-0.00051160
O		7.75365384		4.40827761		1.13993626		-0.00076768		 0.00005819		 0.00051160
O		7.75365384		5.15622138		3.68443543		-0.00076768		-0.00005819		 0.00051160
O		7.93985633		8.69126023		4.45338403		-0.00054062		 0.00063904		-0.00060490
O		7.93985633		0.87323877		1.90888395		-0.00054062		-0.00063904		-0.00060490
O		3.42035744		3.90901118		3.18011620		-0.00054062		 0.00063904		 0.00060490
O		3.42035744		5.65548872		0.63561612		-0.00054062		-0.00063904		 0.00060490
O		5.61683344		7.27188872		4.87882443		-0.00009506		-0.00061917		-0.00066028
O		5.61683344		2.29261118		2.33432345		-0.00009506		 0.00061917		-0.00066028
O		1.09733455		2.48963877		2.75467580		-0.00009506		-0.00061917		 0.00066028
O		1.09733455		7.07486022		0.21017572		-0.00009506		 0.00061917		 0.00066028
O		5.84280843		9.10253380		2.86103590		 0.00035991		 0.00056871		 0.00043458
O		5.84280843		0.46196609		0.31653582		 0.00035991		-0.00056871		 0.00043458
O		1.32330863		4.32028386		4.77246342		 0.00035991		 0.00056871		-0.00043458
O		1.32330863		5.24421514		2.22796425		 0.00035991		-0.00056871		-0.00043458
Si		2.68187118		0.84837067		0.34808826		-0.00048236		-0.00028394		-0.00034128
Si		2.68187118		8.71612832		2.89258743		-0.00048236		 0.00028394		-0.00034128
Si		7.20137097		5.63062062		2.19641272		-0.00048236		-0.00028394		 0.00034128
Si		7.20137097		3.93387837		4.74091189		-0.00048236		 0.00028394		 0.00034128
Si		6.34447381		8.70751958		4.38671779		 0.00020265		 0.00022725		 0.00038499
Si		6.34447381		0.85697851		1.84221771		 0.00020265		-0.00022725		 0.00038499
Si		1.82497402		3.92526963		3.24678153		 0.00020265		 0.00022725		-0.00038499
Si		1.82497402		5.63922846		0.70228236		 0.00020265		-0.00022725		-0.00038499
Mg		9.01640118		0.91914785		3.64372378		-0.00014449		-0.00007532		 0.00023244
Mg		9.01640118		8.64535115		1.09922370		-0.00014449		 0.00007532		 0.00023244
Mg		4.49690139		5.70139780		3.98977555		-0.00014449		-0.00007532		-0.00023244
Mg		4.49690139		3.86310120		1.44527638		-0.00014449		 0.00007532		-0.00023244
Mg		0.05423400		2.51259421		1.09464364		 0.00042777		 0.00052856		 0.00010399
Mg		0.05423400		7.05190568		3.63914371		 0.00042777		-0.00052856		 0.00010399
Mg		4.57373379		7.29484326		1.44985553		 0.00042777		 0.00052856		-0.00010399
Mg		4.57373379		2.26965573		3.99435561		 0.00042777		-0.00052856		-0.00010399
