# total energy = -24716.3509618 eV

CRYSTAL
PRIMVEC
		9.03899958		0.00000000		0.00000000
		0.00000000		8.91237224		0.00000000
		0.00000000		0.00000000		5.08900196
PRIMECORD
   40 1
O		1.09371895		0.77002876		0.29974227		-0.00023794		-0.00082073		-0.00009310
O		1.09371895		8.14234438		2.84424144		-0.00023794		 0.00082073		-0.00009310
O		5.61321874		5.22621668		2.24475781		-0.00023794		-0.00082073		 0.00009310
O		5.61321874		3.68615826		4.78925789		-0.00023794		 0.00082073		 0.00009310
O		3.40679894		2.19244370		0.53739835		-0.00026737		 0.00032785		-0.00042579
O		3.40679894		6.71993035		3.08189843		-0.00026737		-0.00032785		-0.00042579
O		7.92629783		6.64863072		2.00710172		-0.00026737		 0.00032785		 0.00042579
O		7.92629783		2.26374333		4.55160180		-0.00026737		-0.00032785		 0.00042579
O		3.23415405		8.56390072		1.40456382		-0.00068131		-0.00035001		-0.00028357
O		3.23415405		0.34847422		3.94906389		-0.00068131		 0.00035001		-0.00028357
O		7.75365384		4.10771370		1.13993626		-0.00068131		-0.00035001		 0.00028357
O		7.75365384		4.80466034		3.68443543		-0.00068131		 0.00035001		 0.00028357
O		7.93985633		8.09867426		4.45338403		 0.00000127		 0.00020310		-0.00064094
O		7.93985633		0.81369978		1.90888395		 0.00000127		-0.00020310		-0.00064094
O		3.42035744		3.64248724		3.18011620		 0.00000127		 0.00020310		 0.00064094
O		3.42035744		5.26988680		0.63561612		 0.00000127		-0.00020310		 0.00064094
O		5.61683344		6.77607790		4.87882443		 0.00018167		-0.00045421		 0.00045736
O		5.61683344		2.13629614		2.33432345		 0.00018167		 0.00045421		 0.00045736
O		1.09733455		2.31989088		2.75467580		 0.00018167		-0.00045421		-0.00045736
O		1.09733455		6.59248407		0.21017572		 0.00018167		 0.00045421		-0.00045736
O		5.84280843		8.48190705		2.86103590		 0.00021909		-0.00000527		-0.00012323
O		5.84280843		0.43046789		0.31653582		 0.00021909		 0.00000527		-0.00012323
O		1.32330863		4.02571913		4.77246342		 0.00021909		-0.00000527		 0.00012323
O		1.32330863		4.88665491		2.22796425		 0.00021909		 0.00000527		 0.00012323
Si		2.68187118		0.79052831		0.34808826		-0.00039476		 0.00024469		-0.00000146
Si		2.68187118		8.12184664		2.89258743		-0.00039476		-0.00024469		-0.00000146
Si		7.20137097		5.24671442		2.19641272		-0.00039476		 0.00024469		 0.00000146
Si		7.20137097		3.66565962		4.74091189		-0.00039476		-0.00024469		 0.00000146
Si		6.34447381		8.11382543		4.38671779		 0.00018169		-0.00050261		 0.00001882
Si		6.34447381		0.79854861		1.84221771		 0.00018169		 0.00050261		 0.00001882
Si		1.82497402		3.65763751		3.24678153		 0.00018169		-0.00050261		-0.00001882
Si		1.82497402		5.25473563		0.70228236		 0.00018169		 0.00050261		-0.00001882
Mg		9.01640118		0.85647865		3.64372378		 0.00028257		-0.00007463		 0.00053872
Mg		9.01640118		8.05589539		1.09922370		 0.00028257		 0.00007463		 0.00053872
Mg		4.49690139		5.31266568		3.98977555		 0.00028257		-0.00007463		-0.00053872
Mg		4.49690139		3.59970746		1.44527638		 0.00028257		 0.00007463		-0.00053872
Mg		0.05423400		2.34128077		1.09464364		 0.00071511		 0.00026127		-0.00003068
Mg		0.05423400		6.57109328		3.63914371		 0.00071511		-0.00026127		-0.00003068
Mg		4.57373379		6.79746779		1.44985553		 0.00071511		 0.00026127		 0.00003068
Mg		4.57373379		2.11490716		3.99435561		 0.00071511		-0.00026127		 0.00003068
