# total energy = -24712.5868797 eV

CRYSTAL
PRIMVEC
		9.20099728		-0.73607794		0.00000000
		-0.68967674		8.62099611		0.00000000
		-0.97849583		0.07828299		4.80947019
PRIMECORD
   40 1
Si		2.47949392		0.58541387		1.01575986		-0.00010601		 0.00017477		 0.00032430
Si		5.05332803		7.37778729		3.79371033		 0.00010601		-0.00017477		-0.00032430
Si		6.10604547		0.29528868		1.38897524		-0.00009212		 0.00002298		-0.00012822
Si		1.42677740		7.66791064		3.42049496		 0.00009212		-0.00002298		 0.00012822
Si		6.73515419		4.52787389		1.01575986		-0.00045981		-0.00008240		 0.00007949
Si		0.79766775		3.43532728		3.79371033		 0.00045981		 0.00008240		-0.00007949
Si		1.16070477		4.97382847		1.38897524		 0.00026093		-0.00019668		 0.00002110
Si		6.37211718		2.98937085		3.42049496		-0.00026093		 0.00019668		-0.00002110
Mg		-0.86926794		7.82760942		1.20236801		 0.00037073		-0.00008267		-0.00003482
Mg		-0.79891017		0.87166969		3.60710311		-0.00037073		 0.00008267		 0.00003482
Mg		4.07607184		3.14906962		1.20236801		 0.00038410		-0.00005421		-0.00004254
Mg		3.45675011		4.81412970		3.60710311		-0.00038410		 0.00005421		 0.00004254
Mg		-0.43373539		2.38344796		1.20236801		 0.00087471		 0.00055356		 0.00046424
Mg		-1.23444271		6.31583207		3.60710311		-0.00087471		-0.00055356		-0.00046424
Mg		3.82192488		6.32590797		1.20236801		 0.00086690		 0.00052085		 0.00045970
Mg		3.71089706		1.63729227		3.60710311		-0.00086690		-0.00052085		-0.00045970
O		0.91887393		0.70940671		0.66851605		-0.00034662		-0.00093586		-0.00013275
O		6.61394894		7.25379261		4.14095414		 0.00034662		 0.00093586		 0.00013275
O		7.66680392		0.16957161		1.73621904		 0.00009180		 0.00029520		 0.00048928
O		-0.13398197		7.79362771		3.07325207		-0.00009180		-0.00029520		-0.00048928
O		5.17453421		4.65186672		0.66851605		-0.00012141		-0.00092870		-0.00007298
O		2.35828867		3.31133260		4.14095414		 0.00012141		 0.00092870		 0.00007298
O		2.72146414		4.84811325		1.73621904		-0.00014283		 0.00032612		 0.00043465
O		4.81135781		3.11508792		3.07325207		 0.00014283		-0.00032612		-0.00043465
O		2.97340319		1.79736765		1.76507603		-0.00038894		-0.00078737		-0.00024084
O		4.55941876		6.16583167		3.04439509		 0.00038894		 0.00078737		 0.00024084
O		5.41061174		1.60239122		0.63965999		 0.00003407		 0.00022337		 0.00056996
O		2.12221021		6.36080902		4.16981113		-0.00003407		-0.00022337		-0.00056996
O		7.22906254		5.73982766		1.76507603		-0.00023215		-0.00048735		-0.00007087
O		0.30375941		2.22337166		3.04439509		 0.00023215		 0.00048735		 0.00007087
O		0.46527196		6.28093102		0.63965999		-0.00009596		 0.00042341		 0.00046720
O		7.06755091		1.68226923		4.16981113		 0.00009596		-0.00042341		-0.00046720
O		2.34715404		0.33731283		4.40066610		-0.00027258		-0.00029290		 0.00019969
O		5.18566791		7.62588649		0.40880501		 0.00027258		 0.00029290		-0.00019969
O		5.30154446		0.10096207		2.81354011		 0.00072151		-0.00031961		-0.00022884
O		2.23127842		7.86223909		1.99593008		-0.00072151		 0.00031961		 0.00022884
O		6.60281431		4.27977284		4.40066610		-0.00022542		-0.00026435		 0.00021914
O		0.93000764		3.68342648		0.40880501		 0.00022542		 0.00026435		-0.00021914
O		0.35620468		4.77950187		2.81354011		 0.00066834		-0.00029669		-0.00024781
O		7.17661819		3.18369838		1.99593008		-0.00066834		 0.00029669		 0.00024781
