# total energy = -24708.972368 eV

CRYSTAL
PRIMVEC
		9.20100148		1.10411795		0.00000000
		1.03452271		8.62099783		0.00000000
		-0.97849436		-0.11742229		4.80946719
PRIMECORD
   40 1
Si		2.63725864		1.09393444		1.01575979		 0.00023915		 0.00002511		-0.00019415
Si		6.61976377		8.51376740		3.79371018		-0.00023915		-0.00002511		 0.00019415
Si		6.26380956		1.52911973		1.38897473		-0.00017236		-0.00012295		-0.00040614
Si		2.99321285		8.07858118		3.42049524		 0.00017236		 0.00012295		 0.00040614
Si		7.75501888		5.95649418		1.01575979		 0.00037024		 0.00009836		-0.00013818
Si		1.50200446		3.65120673		3.79371018		-0.00037024		-0.00009836		 0.00013818
Si		2.18057017		5.28755967		1.38897473		-0.00028976		-0.00006584		-0.00046324
Si		7.07645316		4.32014124		3.42049524		 0.00028976		 0.00006584		 0.00046324
Mg		0.69234020		7.77868497		1.20236772		-0.00061086		-0.00010401		 0.00014060
Mg		-0.63631834		0.72489521		3.60710317		 0.00061086		 0.00010401		-0.00014060
Mg		4.77557959		4.02024503		1.20236772		-0.00060237		-0.00011369		 0.00013666
Mg		4.48144190		5.58745495		3.60710317		 0.00060237		 0.00011369		-0.00013666
Mg		0.03904099		2.33452302		1.20236772		 0.00021254		-0.00010476		 0.00018081
Mg		0.01698087		6.16905809		3.60710317		-0.00021254		 0.00010476		-0.00018081
Mg		5.15680123		7.19708276		1.20236772		 0.00020447		-0.00009078		 0.00018000
Mg		4.10022118		2.41061722		3.60710317		-0.00020447		 0.00009078		-0.00018000
O		1.07646519		0.90578910		0.66851564		 0.00036821		 0.00038097		-0.00031904
O		8.18055722		8.70191181		4.14095433		-0.00036821		-0.00038097		 0.00031904
O		7.82439635		1.71553955		1.73621888		 0.00056457		 0.00025334		-0.00034060
O		1.43262606		7.89216044		3.07325202		-0.00056457		-0.00025334		 0.00034060
O		6.19422636		5.76834885		0.66851564		 0.00030193		 0.00036238		-0.00033914
O		3.06279698		3.83935206		4.14095433		-0.00030193		-0.00036238		 0.00033914
O		3.74115604		5.47398134		1.73621888		 0.00061824		 0.00025851		-0.00032268
O		5.51586730		4.13371957		3.07325202		-0.00061824		-0.00025851		 0.00032268
O		3.38307320		2.42482169		1.76507635		 0.00043805		 0.00016941		 0.00008763
O		5.87394921		7.18287922		3.04439455		-0.00043805		-0.00016941		-0.00008763
O		5.82028210		2.71728669		0.63966003		 0.00031978		 0.00033711		 0.00040189
O		3.43674123		6.89041422		4.16981087		-0.00031978		-0.00033711		-0.00040189
O		8.50083344		7.28738237		1.76507635		 0.00039302		 0.00011703		 0.00005597
O		0.75618897		2.32031762		3.04439455		-0.00039302		-0.00011703		-0.00005597
O		1.73704179		6.47572663		0.63966003		 0.00035175		 0.00026536		 0.00043954
O		7.51998062		3.13197336		4.16981087		-0.00035175		-0.00026536		-0.00043954
O		2.45284791		0.81519944		4.40066600		-0.00003179		 0.00041664		-0.00029555
O		6.80417542		8.79250239		0.40880490		 0.00003179		-0.00041664		 0.00029555
O		5.40723755		1.16972561		2.81354035		-0.00015577		-0.00067516		-0.00054157
O		3.84978393		8.43797530		1.99592963		 0.00015577		 0.00067516		 0.00054157
O		7.57060815		5.67775919		4.40066600		-0.00004789		 0.00040617		-0.00030873
O		1.68641519		3.92994079		0.40880490		 0.00004789		-0.00040617		 0.00030873
O		1.32399816		4.92816555		2.81354035		-0.00013514		-0.00068043		-0.00054947
O		7.93302425		4.67953444		1.99592963		 0.00013514		 0.00068043		 0.00054947
