# total energy = -24714.881597 eV

CRYSTAL
PRIMVEC
		9.20099997		-0.36803963		0.00000000
		-0.34484378		8.62100237		0.00000000
		-0.97849848		0.03913552		4.80946985
PRIMECORD
   40 1
Si		2.51104725		0.68711842		1.01576010		 0.00048499		-0.00036070		 0.00009023
Si		5.36661507		7.60498260		3.79370975		-0.00048499		 0.00036070		-0.00009023
Si		6.13759769		0.54205457		1.38897483		-0.00055437		 0.00004898		-0.00012522
Si		1.74006371		7.75004462		3.42049502		 0.00055437		-0.00004898		 0.00012522
Si		6.93912627		4.81359795		1.01576010		 0.00048028		-0.00036361		 0.00008762
Si		0.93853513		3.47850307		3.79370975		-0.00048028		 0.00036361		-0.00008762
Si		1.36467765		5.03657465		1.38897483		-0.00054974		 0.00004636		-0.00012324
Si		6.51298375		3.25552454		3.42049502		 0.00054974		-0.00004636		 0.00012324
Mg		-0.55694632		7.81782457		1.20236838		-0.00011843		 0.00028418		-0.00009668
Mg		-0.76639225		0.84231516		3.60710239		 0.00011843		-0.00028418		 0.00009668
Mg		4.21597371		3.32330449		1.20236838		-0.00011834		 0.00028449		-0.00009673
Mg		3.66168769		4.96879469		3.60710239		 0.00011834		-0.00028449		 0.00009673
Mg		-0.33917972		2.37366316		1.20236838		 0.00039758		-0.00000946		 0.00013942
Mg		-0.98415794		6.28647657		3.60710239		-0.00039758		 0.00000946		-0.00013942
Mg		4.08890114		6.50014269		1.20236838		 0.00039755		-0.00000985		 0.00013942
Mg		3.78876210		1.79195649		3.60710239		-0.00039755		 0.00000985		-0.00013942
O		0.95039181		0.74868274		0.66851570		-0.00009619		 0.00005911		 0.00085772
O		6.92726959		7.54341644		4.14095415		 0.00009619		-0.00005911		-0.00085772
O		7.69832127		0.47876552		1.73621922		-0.00000767		-0.00034694		-0.00033268
O		0.17934013		7.81333366		3.07325155		 0.00000767		 0.00034694		 0.00033268
O		5.37847175		4.87516319		0.66851570		-0.00009311		 0.00005920		 0.00085842
O		2.49918965		3.41693691		4.14095415		 0.00009311		-0.00005920		-0.00085842
O		2.92540216		4.97328561		1.73621922		-0.00001075		-0.00034667		-0.00033338
O		4.95226016		3.31881358		3.07325155		 0.00001075		 0.00034667		 0.00033338
O		3.05533669		1.92285882		1.76507637		 0.00041634		 0.00001580		 0.00049360
O		4.82232471		6.36924129		3.04439532		-0.00041634		-0.00001580		-0.00049360
O		5.49254580		1.82536994		0.63966039		 0.00018093		 0.00040718		-0.00027494
O		2.38511560		6.46673017		4.16981038		-0.00018093		-0.00040718		 0.00027494
O		7.48341663		6.04933834		1.76507637		 0.00041818		 0.00001900		 0.00049539
O		0.39424477		2.24276084		3.04439532		-0.00041818		-0.00001900		-0.00049539
O		0.71962577		6.31989002		0.63966039		 0.00017929		 0.00040967		-0.00027633
O		7.15803655		1.97221009		4.16981038		-0.00017929		-0.00040967		 0.00027633
O		2.36829285		0.43289041		4.40066574		 0.00004195		 0.00040799		-0.00001818
O		5.50936947		7.85920969		0.40880503		-0.00004195		-0.00040799		 0.00001818
O		5.32268292		0.31471403		2.81353995		-0.00012508		 0.00035660		 0.00015356
O		2.55497848		7.97738607		1.99592989		 0.00012508		-0.00035660		-0.00015356
O		6.79637279		4.55936994		4.40066574		 0.00004258		 0.00040827		-0.00001801
O		1.08128861		3.73273016		0.40880503		-0.00004258		-0.00040827		 0.00001801
O		0.54976288		4.80923411		2.81353995		-0.00012579		 0.00035684		 0.00015339
O		7.32789852		3.48286599		1.99592989		 0.00012579		-0.00035684		-0.00015339
