# total energy = -66809.1676138 eV

CRYSTAL
PRIMVEC
		18.34339340		-1.46746779		0.00000000
		-0.53849784		6.73130577		0.00000000
		0.00000000		0.00000000		10.88439879
PRIMECORD
   112 1
Ca		13.63399859		5.59034289		2.52060895		 0.00004267		-0.00008993		-0.00021706
Ca		4.17089697		-0.32651411		8.36379169		-0.00004267		 0.00008993		 0.00021706
Ca		4.17089697		-0.32651411		2.52060895		-0.00004267		 0.00008993		-0.00021706
Ca		13.63399859		5.59034289		8.36379169		 0.00004267		-0.00008993		 0.00021706
Ca		13.07449487		2.29099426		2.92159045		 0.00041935		 0.00008802		 0.00028209
Ca		4.73039885		2.97283451		7.96281018		-0.00041935		-0.00008802		-0.00028209
Ca		4.73039885		2.97283451		2.92159045		-0.00041935		-0.00008802		 0.00028209
Ca		13.07449487		2.29099426		7.96281018		 0.00041935		 0.00008802		-0.00028209
Ca		7.47028607		0.46025252		8.14849744		-0.00070166		 0.00009895		 0.00052248
Ca		10.33460765		4.80357442		2.73590319		 0.00070166		-0.00009895		-0.00052248
Ca		10.33460765		4.80357442		8.14849744		 0.00070166		-0.00009895		 0.00052248
Ca		7.47028607		0.46025252		2.73590319		-0.00070166		 0.00009895		-0.00052248
Ca		1.26181068		4.30104146		8.17810259		 0.00010334		-0.00009358		-0.00035445
Ca		16.54308488		0.96278732		2.70629621		-0.00010334		 0.00009358		 0.00035445
Ca		16.54308488		0.96278732		8.17810259		-0.00010334		 0.00009358		-0.00035445
Ca		1.26181068		4.30104146		2.70629621		 0.00010334		-0.00009358		 0.00035445
Ca		5.67182144		4.91555613		0.00000000		 0.00003020		-0.00023963		-0.00000000
Ca		12.13307228		0.34827080		0.00000000		-0.00003020		 0.00023963		-0.00000000
Ca		2.90450787		1.79283178		5.44219940		-0.00025202		 0.00070602		-0.00000000
Ca		14.90038585		3.47099515		5.44219940		 0.00025202		-0.00070602		-0.00000000
Ca		12.25772929		0.16841882		5.44219940		 0.00062447		 0.00002622		-0.00000000
Ca		5.54716627		5.09540995		5.44219940		-0.00062447		-0.00002622		-0.00000000
Ca		14.80308709		3.30889926		0.00000000		-0.00038220		-0.00005947		0.00000000
Ca		3.00180662		1.95492951		0.00000000		 0.00038220		 0.00005947		0.00000000
Ca		8.90244778		2.63191347		0.00000000		0.00000000		0.00000000		0.00000000
Ca		0.00000000		0.00000000		5.44219940		0.00000000		0.00000000		0.00000000
Ca		8.90244778		2.63191347		5.44219940		0.00000000		0.00000000		0.00000000
Ca		0.00000000		0.00000000		0.00000000		0.00000000		0.00000000		0.00000000
Si		7.30178628		4.22736167		8.18267364		 0.00032653		-0.00062806		 0.00028381
Si		10.50310743		1.03646526		2.70172515		-0.00032653		 0.00062806		-0.00028381
Si		10.50310743		1.03646526		8.18267364		-0.00032653		 0.00062806		 0.00028381
Si		7.30178628		4.22736167		2.70172515		 0.00032653		-0.00062806		-0.00028381
Si		1.36436504		1.35824638		8.14392638		-0.00023940		-0.00006197		-0.00022791
Si		16.44052867		3.90558240		2.74047425		 0.00023940		 0.00006197		 0.00022791
Si		16.44052867		3.90558240		8.14392638		 0.00023940		 0.00006197		-0.00022791
Si		1.36436504		1.35824638		2.74047425		-0.00023940		-0.00006197		 0.00022791
Si		11.78082848		3.97671902		5.44219940		-0.00056682		-0.00030279		0.00000000
Si		6.02406523		1.28710975		5.44219940		 0.00056682		 0.00030279		0.00000000
Si		15.21138339		0.35816556		0.00000000		 0.00019999		-0.00022783		0.00000000
Si		2.59351217		4.90566321		0.00000000		-0.00019999		 0.00022783		0.00000000
Si		6.05108122		1.40734108		0.00000000		-0.00049131		-0.00060017		0.00000000
Si		11.75381250		3.85648585		0.00000000		 0.00049131		 0.00060017		0.00000000
Si		2.54678764		5.03179423		5.44219940		 0.00035863		-0.00001370		0.00000000
Si		15.25810608		0.23203271		5.44219940		-0.00035863		 0.00001370		0.00000000
Mg		9.17170038		-0.73373574		5.44219940		0.00000000		0.00000000		0.00000000
Mg		-0.26925260		3.36564920		0.00000000		0.00000000		0.00000000		0.00000000
Mg		9.17170038		-0.73373574		0.00000000		0.00000000		0.00000000		0.00000000
Mg		-0.26925260		3.36564920		5.44219940		0.00000000		0.00000000		0.00000000
O		5.15734374		1.30628464		1.32789779		 0.00035451		-0.00045432		 0.00050878
O		12.64755182		3.95754229		9.55650284		-0.00035451		 0.00045432		-0.00050878
O		12.64755182		3.95754229		1.32789779		-0.00035451		 0.00045432		 0.00050878
O		5.15734374		1.30628464		9.55650284		 0.00035451		-0.00045432		-0.00050878
O		3.46831214		4.78551653		4.11430344		 0.00024732		 0.00028024		-0.00001017
O		14.33658158		0.47831040		6.77009719		-0.00024732		-0.00028024		 0.00001017
O		14.33658158		0.47831040		4.11430344		-0.00024732		-0.00028024		-0.00001017
O		3.46831214		4.78551653		6.77009719		 0.00024732		 0.00028024		 0.00001017
O		12.32535114		4.68156913		4.13933753		 0.00000330		 0.00022897		 0.00044720
O		5.47954258		0.58225964		6.74506310		-0.00000330		-0.00022897		-0.00044720
O		5.47954258		0.58225964		4.13933753		-0.00000330		-0.00022897		 0.00044720
O		12.32535114		4.68156913		6.74506310		 0.00000330		 0.00022897		-0.00044720
O		14.54634234		1.15978077		1.30286371		 0.00001549		 0.00052413		-0.00025948
O		3.25855322		4.10404801		9.58153692		-0.00001549		-0.00052413		 0.00025948
O		3.25855322		4.10404801		1.30286371		-0.00001549		-0.00052413		-0.00025948
O		14.54634234		1.15978077		9.58153692		 0.00001549		 0.00052413		 0.00025948
O		8.30543709		4.55839532		9.36711494		 0.00070290		 0.00015537		 0.00015106
O		9.49945847		0.70543161		1.51728570		-0.00070290		-0.00015537		-0.00015106
O		9.49945847		0.70543161		9.36711494		-0.00070290		-0.00015537		 0.00015106
O		8.30543709		4.55839532		1.51728570		 0.00070290		 0.00015537		-0.00015106
O		0.29447991		1.85516305		6.95948509		-0.00032079		 0.00031041		-0.00010779
O		17.51041565		3.40866573		3.92491554		 0.00032079		-0.00031041		 0.00010779
O		17.51041565		3.40866573		6.95948509		 0.00032079		-0.00031041		-0.00010779
O		0.29447991		1.85516305		3.92491554		-0.00032079		 0.00031041		 0.00010779
O		5.78088644		4.95565594		8.55731452		 0.00001601		 0.00042792		-0.00051299
O		12.02400912		0.30817284		2.32708427		-0.00001601		-0.00042792		 0.00051299
O		12.02400912		0.30817284		8.55731452		-0.00001601		-0.00042792		-0.00051299
O		5.78088644		4.95565594		2.32708427		 0.00001601		 0.00042792		 0.00051299
O		2.78758154		1.85101155		7.76928551		-0.00003901		 0.00035807		 0.00000537
O		15.01731402		3.41281722		3.11511512		 0.00003901		-0.00035807		-0.00000537
O		15.01731402		3.41281722		7.76928551		 0.00003901		-0.00035807		 0.00000537
O		2.78758154		1.85101155		3.11511512		-0.00003901		 0.00035807		-0.00000537
O		6.63007450		2.78628236		0.00000000		 0.00056541		-0.00058282		-0.00000000
O		11.17482106		2.47754642		0.00000000		-0.00056541		 0.00058282		-0.00000000
O		1.73828640		6.52173455		5.44219940		 0.00022154		-0.00027460		-0.00000000
O		16.06660916		-1.25790761		5.44219940		-0.00022154		 0.00027460		-0.00000000
O		7.28471107		2.69110535		7.82697211		 0.00068739		-0.00059802		-0.00033036
O		10.52018449		2.57272158		3.05742852		-0.00068739		 0.00059802		 0.00033036
O		10.52018449		2.57272158		7.82697211		-0.00068739		 0.00059802		-0.00033036
O		7.28471107		2.69110535		3.05742852		 0.00068739		-0.00059802		 0.00033036
O		1.09054139		6.53074969		8.49962792		-0.00057839		 0.00008884		-0.00059327
O		16.71435417		-1.26692275		2.38477272		 0.00057839		-0.00008884		 0.00059327
O		16.71435417		-1.26692275		8.49962792		 0.00057839		-0.00008884		-0.00059327
O		1.09054139		6.53074969		2.38477272		-0.00057839		 0.00008884		 0.00059327
O		7.24073028		0.11966087		0.00000000		 0.00033219		 0.00060063		-0.00000000
O		10.56416528		5.14416606		0.00000000		-0.00033219		-0.00060063		-0.00000000
O		1.54917085		3.91909499		5.44219940		-0.00032212		-0.00013625		-0.00000000
O		16.25572471		1.34473379		5.44219940		 0.00032212		 0.00013625		-0.00000000
O		10.15751780		4.34936512		5.44219940		-0.00031009		 0.00012370		0.00000000
O		7.64737776		0.91446181		5.44219940		 0.00031009		-0.00012370		0.00000000
O		16.79559718		0.47421044		0.00000000		-0.00004807		-0.00066292		0.00000000
O		1.00929654		4.78961834		0.00000000		 0.00004807		 0.00066292		0.00000000
O		12.46528733		2.43115865		5.44219940		-0.00030014		-0.00051530		0.00000000
O		5.33960638		2.83267013		5.44219940		 0.00030014		 0.00051530		0.00000000
O		14.76698788		-1.09708698		0.00000000		 0.00073718		-0.00019953		-0.00000000
O		3.03790583		6.36091391		0.00000000		-0.00073718		 0.00019953		-0.00000000
O		7.69708893		5.00902543		6.85281788		-0.00030311		-0.00030192		 0.00053436
O		10.10780479		0.25480151		4.03158276		 0.00030311		 0.00030192		-0.00053436
O		10.10780479		0.25480151		6.85281788		 0.00030311		 0.00030192		 0.00053436
O		7.69708893		5.00902543		4.03158276		-0.00030311		-0.00030192		-0.00053436
O		0.83809718		2.21363408		9.47378215		 0.00000067		-0.00032847		-0.00006429
O		16.96679838		3.05019285		1.41061848		-0.00000067		 0.00032847		 0.00006429
O		16.96679838		3.05019285		9.47378215		-0.00000067		 0.00032847		-0.00006429
O		0.83809718		2.21363408		1.41061848		 0.00000067		-0.00032847		 0.00006429
