# total energy = -66809.1674979 eV

CRYSTAL
PRIMVEC
		18.34339340		1.46746779		0.00000000
		0.53849784		6.73130577		0.00000000
		0.00000000		0.00000000		10.88439879
PRIMECORD
   112 1
Ca		14.70985334		7.85785067		2.52060895		-0.00043344		 0.00008635		-0.00029317
Ca		4.17204893		0.34091920		8.36379169		 0.00043344		-0.00008635		 0.00029317
Ca		4.17204893		0.34091920		2.52060895		 0.00043344		-0.00008635		-0.00029317
Ca		14.70985334		7.85785067		8.36379169		-0.00043344		 0.00008635		 0.00029317
Ca		13.61184810		4.42590089		2.92159045		-0.00003562		-0.00009132		 0.00022419
Ca		5.27005417		3.77287082		7.96281018		 0.00003562		 0.00009132		-0.00022419
Ca		5.27005417		3.77287082		2.92159045		 0.00003562		 0.00009132		 0.00022419
Ca		13.61184810		4.42590089		7.96281018		-0.00003562		-0.00009132		-0.00022419
Ca		7.64063710		1.66912615		8.14849744		-0.00010666		-0.00009185		 0.00036030
Ca		11.24126517		6.52964557		2.73590319		 0.00010666		 0.00009185		-0.00036030
Ca		11.24126517		6.52964557		8.14849744		 0.00010666		 0.00009185		 0.00036030
Ca		7.64063710		1.66912615		2.73590319		-0.00010666		-0.00009185		-0.00036030
Ca		1.97066322		4.55963745		8.17810259		 0.00070863		 0.00009999		-0.00052551
Ca		16.91123905		3.63913242		2.70629621		-0.00070863		-0.00009999		 0.00052551
Ca		16.91123905		3.63913242		8.17810259		-0.00070863		-0.00009999		-0.00052551
Ca		1.97066322		4.55963745		2.70629621		 0.00070863		 0.00009999		 0.00052551
Ca		6.53644327		5.89221856		0.00000000		 0.00025948		 0.00070978		0.00000000
Ca		12.34545901		2.30655316		0.00000000		-0.00025948		-0.00070978		0.00000000
Ca		3.23062634		2.28364266		5.44219940		-0.00004791		-0.00024429		0.00000000
Ca		15.65127593		5.91512905		5.44219940		 0.00004791		 0.00024429		0.00000000
Ca		12.44275776		2.14445727		5.44219940		 0.00040360		-0.00003426		0.00000000
Ca		6.43914451		6.05431445		5.44219940		-0.00040360		 0.00003426		0.00000000
Ca		15.52662076		5.73527523		0.00000000		-0.00064080		 0.00002841		0.00000000
Ca		3.35528151		2.46349649		0.00000000		 0.00064080		-0.00002841		0.00000000
Ca		9.44095114		4.09938678		0.00000000		0.00000000		0.00000000		0.00000000
Ca		0.00000000		0.00000000		5.44219940		0.00000000		0.00000000		0.00000000
Ca		9.44095114		4.09938678		5.44219940		0.00000000		0.00000000		0.00000000
Ca		0.00000000		0.00000000		0.00000000		0.00000000		0.00000000		0.00000000
Si		8.07658609		5.45763132		8.18267364		 0.00025059		-0.00006927		 0.00023579
Si		10.80531618		2.74114040		2.70172515		-0.00025059		 0.00006927		-0.00023579
Si		10.80531618		2.74114040		8.18267364		-0.00025059		 0.00006927		 0.00023579
Si		8.07658609		5.45763132		2.70172515		 0.00025059		-0.00006927		-0.00023579
Si		1.60066149		1.59544821		8.14392638		-0.00032641		-0.00062763		-0.00029270
Si		17.28124078		6.60332351		2.74047425		 0.00032641		 0.00062763		 0.00029270
Si		17.28124078		6.60332351		8.14392638		 0.00032641		 0.00062763		-0.00029270
Si		1.60066149		1.59544821		2.74047425		-0.00032641		-0.00062763		 0.00029270
Si		12.57296850		5.92502197		5.44219940		-0.00020807		-0.00021460		0.00000000
Si		6.30893561		2.27374975		5.44219940		 0.00020807		 0.00021460		0.00000000
Si		15.46501821		2.81227703		0.00000000		 0.00056829		-0.00030945		0.00000000
Si		3.41688406		5.38649469		0.00000000		-0.00056829		 0.00030945		0.00000000
Si		6.35566014		2.39988076		0.00000000		-0.00035623		 0.00000629		-0.00000000
Si		12.52624213		5.79889096		0.00000000		 0.00035623		-0.00000629		-0.00000000
Si		3.38986992		5.50672786		5.44219940		 0.00050202		-0.00060324		-0.00000000
Si		15.49203235		2.69204385		5.44219940		-0.00050202		 0.00060324		-0.00000000
Mg		9.17170038		0.73373574		5.44219940		0.00000000		0.00000000		0.00000000
Mg		0.26925260		3.36564920		0.00000000		0.00000000		0.00000000		0.00000000
Mg		9.17170038		0.73373574		0.00000000		0.00000000		0.00000000		0.00000000
Mg		0.26925260		3.36564920		5.44219940		0.00000000		0.00000000		0.00000000
O		5.43413564		2.15360306		1.32789779		-0.00025039		 0.00029043		 0.00000792
O		13.44776848		6.04516865		9.55650284		 0.00025039		-0.00029043		-0.00000792
O		13.44776848		6.04516865		1.32789779		 0.00025039		-0.00029043		 0.00000792
O		5.43413564		2.15360306		9.55650284		-0.00025039		 0.00029043		-0.00000792
O		4.28360740		5.40567142		4.11430344		-0.00034968		-0.00046380		-0.00051120
O		14.59829487		2.79310030		6.77009719		 0.00034968		 0.00046380		 0.00051120
O		14.59829487		2.79310030		4.11430344		 0.00034968		 0.00046380		-0.00051120
O		4.28360740		5.40567142		6.77009719		-0.00034968		-0.00046380		 0.00051120
O		13.23800955		6.72663718		4.13933753		-0.00000558		 0.00051765		 0.00025806
O		5.64389456		1.47213454		6.74506310		 0.00000558		-0.00051765		-0.00025806
O		5.64389456		1.47213454		4.13933753		 0.00000558		-0.00051765		 0.00025806
O		13.23800955		6.72663718		6.74506310		-0.00000558		 0.00051765		-0.00025806
O		14.92049372		3.51712714		1.30286371		-0.00000009		 0.00021726		-0.00044263
O		3.96140855		4.68164458		9.58153692		 0.00000009		-0.00021726		 0.00044263
O		3.96140855		4.68164458		1.30286371		 0.00000009		-0.00021726		-0.00044263
O		14.92049372		3.51712714		9.58153692		-0.00000009		 0.00021726		 0.00044263
O		9.14647307		5.95454799		9.36711494		 0.00032051		 0.00031506		 0.00011024
O		9.73542920		2.24422373		1.51728570		-0.00032051		-0.00031506		-0.00011024
O		9.73542920		2.24422373		9.36711494		-0.00032051		-0.00031506		 0.00011024
O		9.14647307		5.95454799		1.51728570		 0.00032051		 0.00031506		-0.00011024
O		0.59701069		1.92648185		6.95948509		-0.00070340		 0.00015729		-0.00015432
O		18.28489343		6.27228986		3.92491554		 0.00070340		-0.00015729		 0.00015432
O		18.28489343		6.27228986		6.95948509		 0.00070340		-0.00015729		-0.00015432
O		0.59701069		1.92648185		3.92491554		-0.00070340		 0.00015729		 0.00015432
O		6.65337144		5.95039649		8.55731452		 0.00003464		 0.00035393		-0.00000306
O		12.22853267		2.24837522		2.32708427		-0.00003464		-0.00035393		 0.00000306
O		12.22853267		2.24837522		8.55731452		-0.00003464		-0.00035393		-0.00000306
O		6.65337144		5.95039649		2.32708427		 0.00003464		 0.00035393		 0.00000306
O		3.12156134		2.32374247		7.76928551		-0.00001279		 0.00041589		 0.00050768
O		15.76034093		5.87502925		3.11511512		 0.00001279		-0.00041589		-0.00050768
O		15.76034093		5.87502925		7.76928551		 0.00001279		-0.00041589		 0.00050768
O		3.12156134		2.32374247		3.11511512		-0.00001279		 0.00041589		-0.00050768
O		7.16416138		3.88982108		0.00000000		-0.00020837		-0.00027846		0.00000000
O		11.71774089		4.30895064		0.00000000		 0.00020837		 0.00027846		0.00000000
O		2.81087847		6.88566729		5.44219940		-0.00057107		-0.00057592		0.00000000
O		16.07102380		1.31310442		5.44219940		 0.00057107		 0.00057592		0.00000000
O		7.81190639		3.89883622		7.82697211		 0.00059213		 0.00008046		 0.00059835
O		11.06999588		4.29993550		3.05742852		-0.00059213		-0.00008046		-0.00059835
O		11.06999588		4.29993550		7.82697211		-0.00059213		-0.00008046		 0.00059835
O		7.81190639		3.89883622		3.05742852		 0.00059213		 0.00008046		-0.00059835
O		2.15624007		6.79049213		8.49962792		-0.00067589		-0.00059967		 0.00031637
O		16.72566220		1.40827959		2.38477272		 0.00067589		 0.00059967		-0.00031637
O		16.72566220		1.40827959		8.49962792		 0.00067589		 0.00059967		 0.00031637
O		2.15624007		6.79049213		2.38477272		-0.00067589		-0.00059967		-0.00031637
O		7.35327693		1.28718152		0.00000000		 0.00032649		-0.00014215		-0.00000000
O		11.52862534		6.91159020		0.00000000		-0.00032649		 0.00014215		-0.00000000
O		2.20022086		4.21904581		5.44219940		-0.00031493		 0.00061239		0.00000000
O		16.68168141		3.97972407		5.44219940		 0.00031493		-0.00061239		0.00000000
O		10.98875104		6.04106869		5.44219940		 0.00004294		-0.00066496		0.00000000
O		7.89315124		2.15770303		5.44219940		-0.00004294		 0.00066496		0.00000000
O		17.08832889		3.18492312		0.00000000		 0.00030830		 0.00013375		0.00000000
O		1.79357338		5.01384859		0.00000000		-0.00030830		-0.00013375		0.00000000
O		13.01736217		4.46976943		5.44219940		-0.00074356		-0.00019359		0.00000000
O		5.86454010		3.72900045		5.44219940		 0.00074356		 0.00019359		0.00000000
O		14.78055936		1.26671665		0.00000000		 0.00029281		-0.00051955		0.00000000
O		4.10134475		6.93205507		0.00000000		-0.00029281		 0.00051955		0.00000000
O		8.60285396		6.31302086		6.85281788		 0.00000679		-0.00033984		 0.00007244
O		10.27904832		1.88575086		4.03158276		-0.00000679		 0.00033984		-0.00007244
O		10.27904832		1.88575086		6.85281788		-0.00000679		 0.00033984		 0.00007244
O		8.60285396		6.31302086		4.03158276		 0.00000679		-0.00033984		-0.00007244
O		1.20535701		2.37711196		9.47378215		 0.00030704		-0.00030760		-0.00053491
O		17.67654526		5.82165976		1.41061848		-0.00030704		 0.00030760		 0.00053491
O		17.67654526		5.82165976		9.47378215		-0.00030704		 0.00030760		-0.00053491
O		1.20535701		2.37711196		1.41061848		 0.00030704		-0.00030760		 0.00053491
