# total energy = -66803.0277579 eV

CRYSTAL
PRIMVEC
		18.34340159		-2.20120376		0.00000000
		-0.80776391		6.73129199		0.00000000
		0.00000000		0.00000000		10.88439787
PRIMECORD
   112 1
Ca		13.36503414		5.02346678		2.52060878		-0.00044599		 0.00020305		-0.00001857
Ca		4.17060724		-0.49337485		8.36379094		 0.00044599		-0.00020305		 0.00001857
Ca		4.17060724		-0.49337485		2.52060878		 0.00044599		-0.00020305		-0.00001857
Ca		13.36503414		5.02346678		8.36379094		-0.00044599		 0.00020305		 0.00001857
Ca		12.94015904		1.75726616		2.92159016		-0.00015579		-0.00048162		-0.00003769
Ca		4.59548419		2.77282577		7.96280956		 0.00015579		 0.00048162		 0.00003769
Ca		4.59548419		2.77282577		2.92159016		 0.00015579		 0.00048162		-0.00003769
Ca		12.94015904		1.75726616		7.96280956		-0.00015579		-0.00048162		 0.00003769
Ca		7.42769969		0.15803329		8.14849623		 0.00000517		 0.00003132		-0.00011073
Ca		10.10794354		4.37205863		2.73590348		-0.00000517		-0.00003132		 0.00011073
Ca		10.10794354		4.37205863		8.14849623		-0.00000517		-0.00003132		-0.00011073
Ca		7.42769969		0.15803329		2.73590348		 0.00000517		 0.00003132		 0.00011073
Ca		1.08459514		4.23639117		8.17810242		 0.00004710		 0.00007833		 0.00021716
Ca		16.45104624		0.29370075		2.70629730		-0.00004710		-0.00007833		-0.00021716
Ca		16.45104624		0.29370075		8.17810242		-0.00004710		-0.00007833		 0.00021716
Ca		1.08459514		4.23639117		2.70629730		 0.00004710		 0.00007833		-0.00021716
Ca		5.45566536		4.67139241		0.00000000		 0.00049459		 0.00024040		0.00000000
Ca		12.07997602		-0.14130049		0.00000000		-0.00049459		-0.00024040		0.00000000
Ca		2.82297800		1.67013067		5.44220078		-0.00058776		-0.00053235		0.00000000
Ca		14.71266523		2.85996125		5.44220078		 0.00058776		 0.00053235		0.00000000
Ca		12.21146998		-0.32559230		5.44220078		-0.00007441		-0.00005311		0.00000000
Ca		5.32417140		4.85568422		5.44220078		 0.00007441		 0.00005311		0.00000000
Ca		14.62220424		2.70230485		0.00000000		 0.00041322		-0.00004334		0.00000000
Ca		2.91343899		1.82778708		0.00000000		-0.00041322		 0.00004334		0.00000000
Ca		8.76782254		2.26504596		0.00000000		0.00000000		0.00000000		0.00000000
Ca		0.00000000		0.00000000		5.44220078		0.00000000		0.00000000		0.00000000
Ca		8.76782254		2.26504596		5.44220078		0.00000000		0.00000000		0.00000000
Ca		0.00000000		0.00000000		0.00000000		0.00000000		0.00000000		0.00000000
Si		7.10808590		3.91979435		8.18267313		-0.00003596		 0.00039576		-0.00015534
Si		10.42755548		0.61029757		2.70172658		 0.00003596		-0.00039576		 0.00015534
Si		10.42755548		0.61029757		8.18267313		 0.00003596		-0.00039576		-0.00015534
Si		7.10808590		3.91979435		2.70172658		-0.00003596		 0.00039576		 0.00015534
Si		1.30529194		1.29894577		8.14392552		-0.00031665		-0.00029963		-0.00000994
Si		16.23035129		3.23114615		2.74047420		 0.00031665		 0.00029963		 0.00000994
Si		16.23035129		3.23114615		8.14392552		 0.00031665		 0.00029963		-0.00000994
Si		1.30529194		1.29894577		2.74047420		-0.00031665		-0.00029963		 0.00000994
Si		11.58279347		3.48964280		5.44220078		 0.00000770		-0.00045059		0.00000000
Si		5.95284975		1.04044913		5.44220078		-0.00000770		 0.00045059		0.00000000
Si		15.14797315		-0.25536328		0.00000000		-0.00026229		 0.00037595		-0.00000000
Si		2.38766823		4.78545521		0.00000000		 0.00026229		-0.00037595		-0.00000000
Si		5.97493661		1.15920642		0.00000000		 0.00031602		-0.00053449		0.00000000
Si		11.56070661		3.37088550		0.00000000		-0.00031602		 0.00053449		0.00000000
Si		2.33601767		4.91306203		5.44220078		 0.00034840		 0.00034461		0.00000000
Si		15.19962556		-0.38297010		5.44220078		-0.00034840		-0.00034461		0.00000000
Mg		9.17169895		-1.10060373		5.44220078		0.00000000		0.00000000		0.00000000
Mg		-0.40387826		3.36564969		0.00000000		0.00000000		0.00000000		0.00000000
Mg		9.17169895		-1.10060373		0.00000000		0.00000000		0.00000000		0.00000000
Mg		-0.40387826		3.36564969		5.44220078		0.00000000		0.00000000		0.00000000
O		5.08814590		1.09445525		1.32789610		 0.00031556		 0.00045300		-0.00016940
O		12.44749733		3.43563668		9.55650362		-0.00031556		-0.00045300		 0.00016940
O		12.44749733		3.43563668		1.32789610		-0.00031556		-0.00045300		-0.00016940
O		5.08814590		1.09445525		9.55650362		 0.00031556		 0.00045300		 0.00016940
O		3.26448983		4.63047953		4.11430468		 0.00019836		 0.00001514		 0.00012493
O		14.27115339		-0.10038760		6.77009688		-0.00019836		-0.00001514		-0.00012493
O		14.27115339		-0.10038760		4.11430468		-0.00019836		-0.00001514		 0.00012493
O		3.26448983		4.63047953		6.77009688		 0.00019836		 0.00001514		-0.00012493
O		12.09718733		4.17030241		4.13933646		-0.00001482		-0.00009570		 0.00026709
O		5.43845405		0.35978952		6.74506325		 0.00001482		 0.00009570		-0.00026709
O		5.43845405		0.35978952		4.13933646		 0.00001482		 0.00009570		 0.00026709
O		12.09718733		4.17030241		6.74506325		-0.00001482		-0.00009570		-0.00026709
O		14.45280328		0.57044331		1.30286247		 0.00000294		 0.00001510		 0.00039451
O		3.08283810		3.95964862		9.58153724		-0.00000294		-0.00001510		-0.00039451
O		3.08283810		3.95964862		1.30286247		-0.00000294		-0.00001510		 0.00039451
O		14.45280328		0.57044331		9.58153724		 0.00000294		 0.00001510		-0.00039451
O		8.09517738		4.20935855		9.36711456		-0.00041487		-0.00009217		-0.00024515
O		9.44046400		0.32073522		1.51728516		 0.00041487		 0.00009217		 0.00024515
O		9.44046400		0.32073522		9.36711456		 0.00041487		 0.00009217		-0.00024515
O		8.09517738		4.20935855		1.51728516		-0.00041487		-0.00009217		 0.00024515
O		0.21884560		1.83733311		6.95948594		 0.00016683		 0.00025302		-0.00033526
O		17.31679763		2.69275882		3.92491562		-0.00016683		-0.00025302		 0.00033526
O		17.31679763		2.69275882		6.95948594		-0.00016683		-0.00025302		-0.00033526
O		0.21884560		1.83733311		3.92491562		 0.00016683		 0.00025302		 0.00033526
O		5.56276493		4.70697157		8.55731470		 0.00015159		-0.00000244		 0.00015291
O		11.97287830		-0.17687964		2.32708501		-0.00015159		 0.00000244		-0.00015291
O		11.97287830		-0.17687964		8.55731470		-0.00015159		 0.00000244		 0.00015291
O		5.56276493		4.70697157		2.32708501		 0.00015159		-0.00000244		-0.00015291
O		2.70408584		1.73282743		7.76928394		-0.00038598		-0.00021098		 0.00050969
O		14.83155739		2.79726450		3.11511577		 0.00038598		 0.00021098		-0.00050969
O		14.83155739		2.79726450		7.76928394		 0.00038598		 0.00021098		 0.00050969
O		2.70408584		1.73282743		3.11511577		-0.00038598		-0.00021098		-0.00050969
O		6.49655235		2.51039765		0.00000000		-0.00019019		 0.00042997		0.00000000
O		11.03909088		2.01969428		0.00000000		 0.00019019		-0.00042997		0.00000000
O		1.47013881		6.43075179		5.44220078		-0.00009920		-0.00021777		-0.00000000
O		16.06550627		-1.90065986		5.44220078		 0.00009920		 0.00021777		-0.00000000
O		7.15291179		2.38917394		7.82697213		-0.00001038		 0.00039484		 0.00002215
O		10.38273144		2.14091799		3.05742759		 0.00001038		-0.00039484		-0.00002215
O		10.38273144		2.14091799		7.82697213		 0.00001038		-0.00039484		 0.00002215
O		7.15291179		2.38917394		3.05742759		-0.00001038		 0.00039484		-0.00002215
O		0.82411613		6.46581364		8.49962837		 0.00007674		-0.00022988		-0.00008709
O		16.71152525		-1.93572172		2.38477135		-0.00007674		 0.00022988		 0.00008709
O		16.71152525		-1.93572172		8.49962837		-0.00007674		 0.00022988		-0.00008709
O		0.82411613		6.46581364		2.38477135		 0.00007674		-0.00022988		 0.00008709
O		7.21259343		-0.17222025		0.00000000		-0.00035740		-0.00082303		0.00000000
O		10.32304980		4.70231217		0.00000000		 0.00035740		 0.00082303		0.00000000
O		1.38640642		3.84410782		5.44220078		-0.00022472		-0.00014046		-0.00000000
O		16.14923496		0.68598410		5.44220078		 0.00022472		 0.00014046		-0.00000000
O		9.94970887		3.92644166		5.44220078		 0.00024524		 0.00030596		0.00000000
O		7.58593436		0.60365027		5.44220078		-0.00024524		-0.00030596		0.00000000
O		16.72241626		-0.20346886		0.00000000		-0.00036458		 0.00014098		0.00000000
O		0.81322696		4.73356079		0.00000000		 0.00036458		-0.00014098		0.00000000
O		12.32726942		1.92150520		5.44220078		 0.00041276		-0.00036769		0.00000000
O		5.20837380		2.60858672		5.44220078		-0.00041276		 0.00036769		0.00000000
O		14.76359526		-1.68803849		0.00000000		-0.00038755		 0.00068572		-0.00000000
O		2.77204612		6.21813042		0.00000000		 0.00038755		-0.00068572		-0.00000000
O		7.47064852		4.68302612		6.85281869		 0.00011140		 0.00048842		-0.00023521
O		10.06499286		-0.15293419		4.03158103		-0.00011140		-0.00048842		 0.00023521
O		10.06499286		-0.15293419		6.85281869		-0.00011140		-0.00048842		-0.00023521
O		7.47064852		4.68302612		4.03158103		 0.00011140		 0.00048842		 0.00023521
O		0.74628280		2.17276519		9.47378181		 0.00019927		 0.00055206		-0.00008736
O		16.78936042		2.35732674		1.41061790		-0.00019927		-0.00055206		 0.00008736
O		16.78936042		2.35732674		9.47378181		-0.00019927		-0.00055206		-0.00008736
O		0.74628280		2.17276519		1.41061790		 0.00019927		 0.00055206		 0.00008736
