# total energy = -18389.6579583 eV	

CRYSTAL	
PRIMVEC	
		11.10979961		0.00000000		0.00000000	
		0.00000000		7.02833698		0.00000000	
		0.00000000		0.00000000		4.82809672	
PRIMCOORD
   28 1	
Mg		0.00000000		0.00000000		0.00000000		0.00000000		0.00000000		0.00000000	
Mg		5.55489981		0.00000000		2.41404947		0.00000000		0.00000000		0.00000000	
Mg		0.00000000		3.51416960		0.00000000		0.00000000		0.00000000		0.00000000	
Mg		5.55489981		3.51416960		2.41404947		0.00000000		0.00000000		0.00000000	
Ca		3.07563692		1.75708480		4.71922735		 0.00004376		0.00000000		-0.00011797	
Ca		8.03416380		5.27125440		0.10887381		-0.00004376		0.00000000		 0.00011797	
Ca		2.47926288		5.27125440		2.30517677		-0.00004376		-0.00000000		-0.00011797	
Ca		8.63053673		1.75708480		2.52292439		 0.00004376		0.00000000		 0.00011797	
Si		0.90611526		1.75708480		1.98425243		 0.00037195		0.00000000		-0.00017316	
Si		10.20368436		5.27125440		2.84384762		-0.00037195		0.00000000		 0.00017316	
Si		4.64878455		5.27125440		4.39830301		-0.00037195		0.00000000		-0.00017316	
Si		6.46101617		1.75708480		0.42979815		 0.00037195		0.00000000		 0.00017316	
O		0.86289814		1.75708480		3.60031388		 0.00008602		-0.00000000		 0.00051997	
O		10.24690148		5.27125440		1.22778617		-0.00008602		0.00000000		-0.00051997	
O		4.69200167		5.27125440		1.18626441		-0.00008602		0.00000000		 0.00051997	
O		6.41779794		1.75708480		3.64183564		 0.00008602		-0.00000000		-0.00051997	
O		4.98841224		1.75708480		1.18771313		-0.00044692		0.00000000		 0.00002311	
O		6.12138849		5.27125440		3.64038803		 0.00044692		-0.00000000		-0.00002311	
O		0.56648868		5.27125440		3.60176259		 0.00044692		-0.00000000		 0.00002311	
O		10.54331204		1.75708480		1.22633745		-0.00044692		0.00000000		-0.00002311	
O		1.63902874		0.32119542		1.31951979		 0.00073658		 0.00004343		-0.00017962	
O		9.47077088		6.70714490		3.50858026		-0.00073658		-0.00004343		 0.00017962	
O		3.91587107		6.70714490		3.73357037		-0.00073658		-0.00004343		-0.00017962	
O		7.19392854		0.32119542		1.09452968		 0.00073658		 0.00004343		 0.00017962	
O		9.47077088		3.83536502		3.50858026		-0.00073658		 0.00004343		 0.00017962	
O		1.63902874		3.19297530		1.31951979		 0.00073658		-0.00004343		-0.00017962	
O		7.19392854		3.19297530		1.09452968		 0.00073658		-0.00004343		 0.00017962	
O		3.91587107		3.83536502		3.73357037		-0.00073658		 0.00004343		-0.00017962	
