# total energy = -9139.64463653 eV	

CRYSTAL	
PRIMVEC	
		5.46632480		0.00000000		0.00000000	
		-2.73316240		4.61851423		0.00000000	
		0.00000000		0.00000000		7.32400062	
PRIMCOORD
   14 1	
Mg		1.81864572		0.00000000		3.33974407		-0.00062684		-0.00000000		-0.00047153	
Mg		-0.90932313		1.53658008		3.33974407		 0.00027082		 0.00018496		-0.00003916	
Mg		1.82383872		3.08193415		3.33974407		 0.00027082		-0.00018496		-0.00003916	
Si		0.00000000		3.07900912		0.56394816		-0.00002356		-0.00018239		 0.00001966	
Si		2.73316295		1.53950511		0.56394816		-0.00002356		 0.00018239		 0.00001966	
O		0.00000000		3.07900912		2.13714277		-0.00012811		-0.00013879		 0.00003894	
O		2.73316295		1.53950511		2.13714277		-0.00012811		 0.00013879		 0.00003894	
O		2.73862873		0.00000000		7.27273196		 0.00073795		0.00000000		 0.00035253	
O		-1.36931382		2.31387506		7.27273196		-0.00027474		 0.00045142		 0.00011702	
O		1.36384804		2.30463807		7.27273196		-0.00027474		-0.00045142		 0.00011702	
O		3.61870702		0.00000000		4.33580793		 0.00012597		0.00000000		 0.00041400	
O		-1.80935406		3.05745595		4.33580793		-0.00014450		 0.00003135		-0.00030770	
O		0.92380889		1.56105773		4.33580793		-0.00014450		-0.00003135		-0.00030770	
O		0.00000000		0.00000000		2.21917208		 0.00036313		0.00000000		 0.00004752	
