# total energy = -9138.11992311 eV	

CRYSTAL	
PRIMVEC	
		4.93302478		0.00000000		0.00000000	
		-2.46651239		4.61851486		0.00000000	
		0.00000000		0.00000000		7.32399777	
PRIMCOORD
   14 1	
Mg		1.64121784		0.00000000		3.33974361		-0.00017925		-0.00000000		 0.00001654	
Mg		-0.82060917		1.53658000		3.33974361		-0.00016941		 0.00018932		 0.00016631	
Mg		1.64590372		3.08193387		3.33974361		-0.00016941		-0.00018932		 0.00016631	
Si		0.00000000		3.07900908		0.56394783		-0.00009979		 0.00020357		-0.00091757	
Si		2.46651289		1.53950479		0.56394783		-0.00009979		-0.00020357		-0.00091757	
O		0.00000000		3.07900908		2.13714271		 0.00021045		-0.00000020		 0.00029145	
O		2.46651289		1.53950479		2.13714271		 0.00021045		 0.00000020		 0.00029145	
O		2.47144591		0.00000000		7.27273180		 0.00047960		0.00000000		 0.00026601	
O		-1.23572271		2.31387474		7.27273180		-0.00011798		 0.00014598		 0.00028312	
O		1.23079018		2.30463814		7.27273180		-0.00011798		-0.00014598		 0.00028312	
O		3.26566290		0.00000000		4.33580765		-0.00033350		-0.00000000		 0.00018862	
O		-1.63283071		3.05745571		4.33580765		 0.00017169		-0.00013947		-0.00017115	
O		0.83368119		1.56105816		4.33580765		 0.00017169		 0.00013947		-0.00017115	
O		0.00000000		0.00000000		2.21917201		 0.00004321		0.00000000		 0.00022449	
