# total energy = -9139.74131703 eV	

CRYSTAL	
PRIMVEC	
		5.73297508		0.00000000		0.00000000	
		-2.86648754		4.61851339		0.00000000	
		0.00000000		0.00000000		7.32400179	
PRIMCOORD
   14 1	
Mg		1.90736081		0.00000000		3.33974406		 0.00089345		0.00000000		-0.00010960	
Mg		-0.95367983		1.53658007		3.33974406		-0.00001384		 0.00005928		-0.00026108	
Mg		1.91280713		3.08193389		3.33974406		-0.00001384		-0.00005928		-0.00026108	
Si		0.00000000		3.07900893		0.56394817		-0.00003642		 0.00045870		 0.00021563	
Si		2.86648811		1.53950504		0.56394817		-0.00003642		-0.00045870		 0.00021563	
O		0.00000000		3.07900893		2.13714304		-0.00015387		 0.00015655		-0.00012292	
O		2.86648811		1.53950504		2.13714304		-0.00015387		-0.00015655		-0.00012292	
O		2.87221994		0.00000000		7.27273236		-0.00052665		-0.00000000		 0.00001189	
O		-1.43611026		2.31387518		7.27273236		 0.00030601		-0.00058428		 0.00020562	
O		1.43037728		2.30463821		7.27273236		 0.00030601		 0.00058428		 0.00020562	
O		3.79523007		0.00000000		4.33580777		-0.00054875		-0.00000000		-0.00041521	
O		-1.89761475		3.05745581		4.33580777		 0.00031805		 0.00029060		 0.00043013	
O		0.96887279		1.56105816		4.33580777		 0.00031805		-0.00029060		 0.00043013	
O		0.00000000		0.00000000		2.21917216		-0.00065790		-0.00000000		-0.00042186	
