# total energy = -20638.3151732 eV

CRYSTAL
PRIMVEC
		4.70800807		-0.00009017		0.00000000
		-0.00019933		9.94086678		0.00000000
		0.00000000		0.00000000		5.86665850
PRIMECORD
   28 1
Si		2.00356463		0.93883375		1.46666486		-0.00014758		 0.00008854		 0.00000009
Si		2.70423984		9.00194285		4.39999411		 0.00014812		-0.00008916		 0.00000002
Si		4.35748229		4.03147150		4.39999411		-0.00014197		-0.00011919		-0.00000012
Si		0.35032218		5.90930510		1.46666486		 0.00014139		 0.00011963		 0.00000013
Mg		0.00000000		0.00000000		0.00000000		 0.00000066		-0.00000060		 0.00000018
Mg		2.35390200		4.97038878		0.00000000		 0.00000009		 0.00000011		 0.00000022
Mg		0.00000000		0.00000000		2.93332925		 0.00000055		-0.00000062		-0.00000012
Mg		2.35390200		4.97038878		2.93332972		 0.00000020		 0.00000001		-0.00000014
Mg		4.65879396		2.73522173		1.46666486		-0.00032288		 0.00030542		 0.00000075
Mg		0.04901004		7.20555535		4.39999411		 0.00032354		-0.00030448		-0.00000056
Mg		2.30474198		2.23451542		4.39999411		-0.00028218		-0.00002615		-0.00000058
Mg		2.40306154		7.70626165		1.46666486		 0.00028121		 0.00002693		 0.00000070
O		3.61395688		0.90822015		1.46666486		 0.00001541		 0.00060951		-0.00000009
O		1.09384759		9.03255693		4.39999411		-0.00001644		-0.00060901		 0.00000012
O		1.25989969		4.06191471		4.39999459		 0.00001762		-0.00059737		 0.00000015
O		3.44790431		5.87886236		1.46666439		-0.00001745		 0.00059705		-0.00000007
O		1.05282602		4.40946001		1.46666486		-0.00021290		-0.00020978		-0.00000009
O		3.65497798		5.53131707		4.39999411		 0.00021290		 0.00020940		 0.00000019
O		3.40703318		0.56084097		4.39999411		-0.00021611		 0.00023909		 0.00000013
O		1.30077129		9.37993611		1.46666486		 0.00021550		-0.00024026		-0.00000005
O		1.28270516		1.64098211		0.17228881		 0.00003628		-0.00006285		-0.00007686
O		3.42509931		8.29979496		5.69437016		-0.00003641		 0.00006374		 0.00007551
O		3.63666696		3.32920875		5.69437538		 0.00003121		 0.00007237		 0.00008637
O		1.07113704		6.61156785		0.17228359		-0.00003088		-0.00007223		-0.00008658
O		3.42509931		8.29979496		3.10561806		-0.00003635		 0.00006338		-0.00007612
O		1.28270516		1.64098211		2.76104091		 0.00003639		-0.00006294		 0.00007703
O		1.07113704		6.61156785		2.76104566		-0.00003082		-0.00007206		 0.00008702
O		3.63666696		3.32920875		3.10561284		 0.00003089		 0.00007150		-0.00008727
