# total energy = -20638.5580292 eV

CRYSTAL
PRIMVEC
		4.72581507		-0.00003322		0.00000000
		-0.00007119		10.01193812		0.00000000
		0.00000000		0.00000000		5.89779226
PRIMECORD
   28 1
Si		2.01294747		0.94406099		1.47444878		 0.00037937		 0.00010924		-0.00000043
Si		2.71279640		9.06784343		4.42334490		-0.00038008		-0.00010546		 0.00000046
Si		4.37580802		4.06191282		4.42334538		 0.00038262		-0.00012652		-0.00000012
Si		0.34993538		5.94999256		1.47444783		-0.00038107		 0.00012361		 0.00000025
Mg		0.00000000		0.00000000		0.00000000		-0.00000077		 0.00000191		-0.00000079
Mg		2.36287194		5.00595292		0.00000000		-0.00000033		-0.00000163		-0.00000032
Mg		0.00000000		0.00000000		2.94889660		-0.00000076		 0.00000192		 0.00000075
Mg		2.36287194		5.00595292		2.94889660		-0.00000033		-0.00000162		 0.00000030
Mg		4.68310961		2.75621233		1.47444830		-0.00076044		 0.00057896		 0.00000022
Mg		0.04263427		7.25569304		4.42334490		 0.00076010		-0.00057987		-0.00000017
Mg		2.32017123		2.24937040		4.42334538		-0.00076381		-0.00055974		-0.00000002
Mg		2.40557265		7.76253450		1.47444783		 0.00076439		 0.00055932		 0.00000012
O		3.62775018		0.91804247		1.47444830		-0.00002647		-0.00030198		 0.00000015
O		1.09799322		9.09386290		4.42334490		 0.00002716		 0.00029990		-0.00000003
O		1.26481132		4.08786347		4.42334490		-0.00002440		 0.00028205		 0.00000036
O		3.46093303		5.92404191		1.47444830		 0.00002375		-0.00028061		-0.00000031
O		1.05445817		4.44771846		1.47444830		 0.00020658		 0.00011289		-0.00000044
O		3.67128618		5.56418644		4.42334490		-0.00020703		-0.00011146		 0.00000046
O		3.41737994		0.55816090		4.42334538		 0.00022782		-0.00009582		-0.00000005
O		1.30836346		9.45374447		1.47444830		-0.00022625		 0.00009638		-0.00000005
O		1.29503147		1.64882061		0.17656733		-0.00050536		-0.00034088		 0.00009770
O		3.43071240		8.36308477		5.72122540		 0.00050570		 0.00033927		-0.00009623
O		3.65794233		3.35707584		5.72123869		-0.00051188		 0.00033302		-0.00010228
O		1.06780155		6.65482953		0.17655451		 0.00051156		-0.00033192		 0.00010211
O		3.43071193		8.36308524		3.12546441		 0.00050566		 0.00033950		 0.00009637
O		1.29503147		1.64882013		2.77232880		-0.00050545		-0.00034134		-0.00009796
O		1.06780155		6.65482906		2.77234161		 0.00051186		-0.00033111		-0.00010126
O		3.65794280		3.35707632		3.12545207		-0.00051214		 0.00033199		 0.00010122
