# total energy = -41270.6669191 eV	

CRYSTAL	
PRIMVEC	
		5.27046468		0.00000000		0.00000000	
		0.00000000		11.46200104		0.00000000	
		0.00000000		0.00000000		8.25709998	
PRIMCOORD
   56 1	
Mg		0.00000000		0.00000000		0.00000000		0.00000000		0.00000000		0.00000000	
Mg		0.00000000		5.73099946		0.00000000		0.00000000		0.00000000		0.00000000	
Mg		2.63523287		5.73099946		4.12854999		0.00000000		0.00000000		0.00000000	
Mg		2.63523287		0.00000000		4.12854999		0.00000000		0.00000000		0.00000000	
Mg		0.00000000		2.86550000		8.00773532		0.00000000		 0.00000001		 0.00029817	
Mg		0.00000000		8.59649946		0.24936413		0.00000000		-0.00000001		-0.00029817	
Mg		2.63523287		8.59649946		3.87918586		-0.00000000		-0.00000002		 0.00029818	
Mg		2.63523287		2.86550000		4.37791465		-0.00000000		 0.00000002		-0.00029818	
Mg		1.31761617		1.45452809		2.06427500		-0.00000001		 0.00032309		-0.00000002	
Mg		3.95284851		10.00747137		6.19282446		 0.00000001		-0.00032309		 0.00000002	
Mg		3.95284851		4.27647191		2.06427500		0.00000000		-0.00032309		-0.00000002	
Mg		1.31761617		7.18552755		6.19282446		-0.00000000		 0.00032309		 0.00000002	
Mg		3.95284851		7.18552755		6.19282446		0.00000000		 0.00032309		 0.00000002	
Mg		1.31761617		4.27647191		2.06427500		-0.00000000		-0.00032309		-0.00000002	
Mg		1.31761617		10.00747137		6.19282446		-0.00000001		-0.00032309		 0.00000002	
Mg		3.95284851		1.45452809		2.06427500		 0.00000001		 0.00032309		-0.00000002	
Si		0.00000000		1.37429369		5.09050150		0.00000000		-0.00012535		-0.00037185	
Si		0.00000000		10.08770524		3.16659795		0.00000000		 0.00012535		 0.00037185	
Si		0.00000000		4.35670577		5.09050150		-0.00000000		 0.00012536		-0.00037183	
Si		0.00000000		7.10529369		3.16659795		-0.00000000		-0.00012536		 0.00037183	
Si		2.63523287		7.10529369		0.96195204		0.00000000		-0.00012531		-0.00037203	
Si		2.63523287		4.35670577		7.29514742		0.00000000		 0.00012531		 0.00037203	
Si		2.63523287		10.08770524		0.96195204		0.00000000		 0.00012525		-0.00037218	
Si		2.63523287		1.37429369		7.29514742		0.00000000		-0.00012525		 0.00037218	
O		0.00000000		2.86550000		1.80169886		-0.00000000		 0.00000001		 0.00040298	
O		0.00000000		8.59649946		6.45540059		-0.00000000		-0.00000001		-0.00040298	
O		2.63523287		8.59649946		5.93024886		0.00000000		-0.00000000		 0.00040294	
O		2.63523287		2.86550000		2.32685060		0.00000000		0.00000000		-0.00040294	
O		0.00000000		2.86550000		5.90960550		0.00000000		0.00000000		-0.00017138	
O		0.00000000		8.59649946		2.34749396		0.00000000		-0.00000000		 0.00017138	
O		2.63523287		8.59649946		1.78105604		0.00000000		-0.00000000		-0.00017134	
O		2.63523287		2.86550000		6.47604342		0.00000000		0.00000000		 0.00017134	
O		0.00000000		11.34508632		2.11794572		-0.00000000		 0.00007651		 0.00006307	
O		0.00000000		0.11691314		6.13915374		-0.00000000		-0.00007651		-0.00006307	
O		0.00000000		5.84791260		2.11794572		0.00000000		-0.00007651		 0.00006307	
O		0.00000000		5.61408686		6.13915374		0.00000000		 0.00007651		-0.00006307	
O		2.63523287		5.61408686		6.24649571		0.00000000		 0.00007655		 0.00006299	
O		2.63523287		5.84791260		2.01060375		0.00000000		-0.00007655		-0.00006299	
O		2.63523287		0.11691314		6.24649571		0.00000000		-0.00007660		 0.00006293	
O		2.63523287		11.34508632		2.01060375		0.00000000		 0.00007660		-0.00006293	
O		1.37084786		1.40524081		8.20012573		-0.00002376		-0.00003358		-0.00011141	
O		3.89961682		10.05675760		0.05697425		 0.00002376		 0.00003358		 0.00011141	
O		3.89961682		4.32575866		8.20012573		 0.00002385		 0.00003358		-0.00011135	
O		1.37084786		7.13624080		0.05697425		-0.00002385		-0.00003358		 0.00011135	
O		3.89961682		7.13624080		0.05697425		 0.00002385		-0.00003358		 0.00011135	
O		1.37084786		4.32575866		8.20012573		-0.00002385		 0.00003358		-0.00011135	
O		1.37084786		10.05675760		0.05697425		-0.00002376		 0.00003358		 0.00011141	
O		3.89961682		1.40524081		8.20012573		 0.00002376		-0.00003358		-0.00011141	
O		4.00608073		7.13624080		4.07157574		-0.00002393		-0.00003356		-0.00011129	
O		1.26438500		4.32575866		4.18552371		 0.00002393		 0.00003356		 0.00011129	
O		1.26438500		10.05675760		4.07157574		 0.00002391		 0.00003357		-0.00011130	
O		4.00608073		1.40524081		4.18552371		-0.00002391		-0.00003357		 0.00011130	
O		1.26438500		1.40524081		4.18552371		 0.00002391		-0.00003357		 0.00011130	
O		4.00608073		10.05675760		4.07157574		-0.00002391		 0.00003357		-0.00011130	
O		4.00608073		4.32575866		4.18552371		-0.00002393		 0.00003356		 0.00011129	
O		1.26438500		7.13624080		4.07157574		 0.00002393		-0.00003356		-0.00011129	
