# total energy = -41266.9487457 eV	

CRYSTAL	
PRIMVEC	
		5.12801970		0.00000000		0.00000000	
		0.00000000		11.46200093		0.00000000	
		0.00000000		0.00000000		8.25710143	
PRIMCOORD
   56 1	
Mg		0.00000000		0.00000000		0.00000000		0.00000000		0.00000000		0.00000000	
Mg		0.00000000		5.73099944		0.00000000		0.00000000		0.00000000		0.00000000	
Mg		2.56400985		5.73099944		4.12854969		0.00000000		0.00000000		0.00000000	
Mg		2.56400985		0.00000000		4.12854969		0.00000000		0.00000000		0.00000000	
Mg		0.00000000		2.86549998		8.00773557		0.00000000		 0.00000001		 0.00021114	
Mg		0.00000000		8.59649941		0.24936380		0.00000000		-0.00000001		-0.00021114	
Mg		2.56400985		8.59649941		3.87918589		0.00000000		-0.00000001		 0.00021111	
Mg		2.56400985		2.86549998		4.37791452		0.00000000		 0.00000001		-0.00021111	
Mg		1.28200493		1.45452792		2.06427510		 0.00000004		 0.00017845		 0.00000008	
Mg		3.84601478		10.00747147		6.19282479		-0.00000004		-0.00017845		-0.00000008	
Mg		3.84601478		4.27647152		2.06427510		-0.00000004		-0.00017845		 0.00000008	
Mg		1.28200493		7.18552736		6.19282479		 0.00000004		 0.00017845		-0.00000008	
Mg		3.84601478		7.18552736		6.19282479		-0.00000004		 0.00017845		-0.00000008	
Mg		1.28200493		4.27647152		2.06427510		 0.00000004		-0.00017845		 0.00000008	
Mg		1.28200493		10.00747147		6.19282479		 0.00000004		-0.00017845		-0.00000008	
Mg		3.84601478		1.45452792		2.06427510		-0.00000004		 0.00017845		 0.00000008	
Si		0.00000000		1.37429390		5.09050157		0.00000000		-0.00015078		-0.00060968	
Si		0.00000000		10.08770549		3.16659781		0.00000000		 0.00015078		 0.00060968	
Si		0.00000000		4.35670554		5.09050157		0.00000000		 0.00015077		-0.00060960	
Si		0.00000000		7.10529333		3.16659781		0.00000000		-0.00015077		 0.00060960	
Si		2.56400985		7.10529333		0.96195188		0.00000000		-0.00015112		-0.00060845	
Si		2.56400985		4.35670554		7.29514750		0.00000000		 0.00015112		 0.00060845	
Si		2.56400985		10.08770549		0.96195188		0.00000000		 0.00015111		-0.00060859	
Si		2.56400985		1.37429390		7.29514750		0.00000000		-0.00015111		 0.00060859	
O		0.00000000		2.86549998		1.80169895		0.00000000		 0.00000004		 0.00089776	
O		0.00000000		8.59649941		6.45540042		0.00000000		-0.00000004		-0.00089776	
O		2.56400985		8.59649941		5.93024864		0.00000000		-0.00000003		 0.00089802	
O		2.56400985		2.86549998		2.32685073		0.00000000		 0.00000003		-0.00089802	
O		0.00000000		2.86549998		5.90960580		0.00000000		 0.00000001		-0.00053672	
O		0.00000000		8.59649941		2.34749409		0.00000000		-0.00000001		 0.00053672	
O		2.56400985		8.59649941		1.78105611		0.00000000		 0.00000001		-0.00053686	
O		2.56400985		2.86549998		6.47604378		0.00000000		-0.00000001		 0.00053686	
O		0.00000000		11.34508618		2.11794598		0.00000000		 0.00029266		 0.00034525	
O		0.00000000		0.11691321		6.13915340		0.00000000		-0.00029266		-0.00034525	
O		0.00000000		5.84791265		2.11794598		0.00000000		-0.00029264		 0.00034525	
O		0.00000000		5.61408674		6.13915340		0.00000000		 0.00029264		-0.00034525	
O		2.56400985		5.61408674		6.24649567		0.00000000		 0.00029228		 0.00034575	
O		2.56400985		5.84791265		2.01060371		0.00000000		-0.00029228		-0.00034575	
O		2.56400985		0.11691321		6.24649567		0.00000000		-0.00029231		 0.00034573	
O		2.56400985		11.34508618		2.01060371		0.00000000		 0.00029231		-0.00034573	
O		1.33379792		1.40524098		8.20012554		-0.00003423		-0.00007598		-0.00026881	
O		3.79422178		10.05675738		0.05697384		 0.00003423		 0.00007598		 0.00026881	
O		3.79422178		4.32575897		8.20012554		 0.00003429		 0.00007599		-0.00026878	
O		1.33379792		7.13624042		0.05697384		-0.00003429		-0.00007599		 0.00026878	
O		3.79422178		7.13624042		0.05697384		 0.00003429		-0.00007599		 0.00026878	
O		1.33379792		4.32575897		8.20012554		-0.00003429		 0.00007599		-0.00026878	
O		1.33379792		10.05675738		0.05697384		-0.00003423		 0.00007598		 0.00026881	
O		3.79422178		1.40524098		8.20012554		 0.00003423		-0.00007598		-0.00026881	
O		3.89780778		7.13624042		4.07157585		-0.00003374		-0.00007599		-0.00026914	
O		1.23021193		4.32575897		4.18552353		 0.00003374		 0.00007599		 0.00026914	
O		1.23021193		10.05675738		4.07157585		 0.00003371		 0.00007598		-0.00026918	
O		3.89780778		1.40524098		4.18552353		-0.00003371		-0.00007598		 0.00026918	
O		1.23021193		1.40524098		4.18552353		 0.00003371		-0.00007598		 0.00026918	
O		3.89780778		10.05675738		4.07157585		-0.00003371		 0.00007598		-0.00026918	
O		3.89780778		4.32575897		4.18552353		-0.00003374		 0.00007599		 0.00026914	
O		1.23021193		7.13624042		4.07157585		 0.00003374		-0.00007599		-0.00026914	
