# total energy = -14250.2328646 eV	

CRYSTAL	
PRIMVEC	
		7.73958507		0.00000000		0.00000000	
		0.00000000		7.73958507		0.00000000	
		0.00000000		0.00000000		4.91837475	
PRIMCOORD
   24 1	
Ca		2.58526599		1.28452577		2.48925244		-0.00017577		 0.00017581		-0.00074893	
Ca		5.15431831		6.45505853		2.48925244		 0.00017578		-0.00017579		-0.00074894	
Ca		1.28452577		5.15431753		2.42911922		 0.00017568		 0.00017570		 0.00074853	
Ca		6.45505775		2.58526599		2.42911922		-0.00017568		-0.00017570		 0.00074855	
Si		1.10127453		2.76851723		4.57414858		-0.00034711		 0.00034704		 0.00034656	
Si		6.63830977		4.97106629		4.57414858		 0.00034712		-0.00034709		 0.00034663	
Si		2.76851801		6.63830977		0.34422153		 0.00034604		 0.00034607		-0.00034212	
Si		4.97106629		1.10127376		0.34422153		-0.00034607		-0.00034603		-0.00034248	
Mg		0.00000000		0.00000000		0.00000000		-0.00000002		 0.00000003		 0.00000003	
Mg		3.86979176		3.86979176		0.00000000		-0.00000001		-0.00000003		 0.00000009	
O		3.86979254		0.00000000		0.92800813		-0.00000008		-0.00000008		 0.00050057	
O		0.00000000		3.86979176		3.99036353		 0.00000001		 0.00000002		-0.00050113	
O		1.09966824		2.77012353		1.26028449		 0.00000386		-0.00000389		-0.00026926	
O		6.63991529		4.96946000		1.26028449		-0.00000389		 0.00000389		-0.00026933	
O		2.77012353		6.63991606		3.65808794		-0.00000384		-0.00000386		 0.00026674	
O		4.96946000		1.09966824		3.65808794		 0.00000383		 0.00000386		 0.00026690	
O		0.63428669		1.41133874		3.80990127		 0.00021436		 0.00032927		-0.00014847	
O		7.10529684		6.32824556		3.80990127		-0.00021434		-0.00032928		-0.00014849	
O		1.41133797		7.10529761		1.10847039		 0.00033060		-0.00021480		 0.00014789	
O		6.32824633		0.63428669		1.10847039		-0.00033046		 0.00021474		 0.00014795	
O		3.23550508		5.28112973		1.10847039		-0.00021478		 0.00033058		 0.00014785	
O		4.50407922		2.45845380		1.10847039		 0.00021477		-0.00033048		 0.00014791	
O		2.45845380		3.23550430		3.80990127		-0.00032926		-0.00021429		-0.00014852	
O		5.28113050		4.50407922		3.80990127		 0.00032922		 0.00021433		-0.00014853	
