# total energy = -14250.399705 eV	

CRYSTAL	
PRIMVEC	
		7.79713492		0.00000000		0.00000000	
		0.00000000		7.79713492		0.00000000	
		0.00000000		0.00000000		4.96213428	
PRIMCOORD
   24 1	
Ca		2.59477003		1.30379975		2.50937904		-0.00005504		 0.00005497		-0.00087043	
Ca		5.20236876		6.49333903		2.50937904		 0.00005502		-0.00005497		-0.00087044	
Ca		1.30379975		5.20236876		2.45275524		 0.00005503		 0.00005510		 0.00087096	
Ca		6.49333903		2.59477003		2.45275524		-0.00005502		-0.00005511		 0.00087095	
Si		1.10503517		2.79353383		4.61455019		-0.00030311		 0.00030221		 0.00018499	
Si		6.69210361		5.00360418		4.61455019		 0.00030307		-0.00030225		 0.00018499	
Si		2.79353383		6.69210284		0.34758640		 0.00030401		 0.00030405		-0.00019110	
Si		5.00360495		1.10503595		0.34758563		-0.00030395		-0.00030405		-0.00019056	
Mg		0.00000000		0.00000000		0.00000000		 0.00000004		 0.00000001		-0.00000008	
Mg		3.89856901		3.89856901		0.00000000		-0.00000004		 0.00000002		-0.00000010	
O		3.89856901		0.00000000		0.93723234		 0.00000007		 0.00000006		 0.00021117	
O		0.00000000		3.89856901		4.02490117		0.00000000		-0.00000001		-0.00021085	
O		1.10756366		2.79100535		1.26036334		 0.00003117		-0.00003111		-0.00023350	
O		6.68957513		5.00613344		1.26036334		-0.00003119		 0.00003113		-0.00023351	
O		2.79100612		6.68957513		3.70176939		-0.00003117		-0.00003124		 0.00023723	
O		5.00613266		1.10756366		3.70176939		 0.00003119		 0.00003123		 0.00023691	
O		0.64059514		1.42805641		3.85488523		 0.00011982		 0.00036490		 0.00007261	
O		7.15654365		6.36908238		3.85488523		-0.00011986		-0.00036488		 0.00007259	
O		1.42805796		7.15654287		1.10724827		 0.00036279		-0.00011914		-0.00007157	
O		6.36908083		0.64059591		1.10724827		-0.00036297		 0.00011918		-0.00007165	
O		3.25797387		5.32662619		1.10724827		-0.00011909		 0.00036279		-0.00007163	
O		4.53916492		2.47051182		1.10724827		 0.00011918		-0.00036291		-0.00007168	
O		2.47051260		3.25797387		3.85488523		-0.00036419		-0.00011955		 0.00007236	
O		5.32662619		4.53916492		3.85488523		 0.00036424		 0.00011958		 0.00007236	
