# total energy = -14249.327485 eV	

CRYSTAL	
PRIMVEC	
		8.14275867		0.00000000		0.00000000	
		0.00000000		8.14275867		0.00000000	
		0.00000000		0.00000000		5.30896391	
PRIMCOORD
   24 1	
Ca		2.55495898		1.51641804		2.54376671		-0.00024506		 0.00024499		 0.00007731	
Ca		5.58779737		6.62633677		2.54376749		 0.00024501		-0.00024499		 0.00007733	
Ca		1.51641958		5.58779506		2.76519411		 0.00024504		 0.00024493		-0.00007713	
Ca		6.62633677		2.55495975		2.76519411		-0.00024499		-0.00024495		-0.00007714	
Si		1.13869778		2.93268079		4.90616057		-0.00025032		 0.00025038		 0.00009915	
Si		7.00405935		5.21007402		4.90616135		 0.00025031		-0.00025038		 0.00009913	
Si		2.93268079		7.00405780		0.40280179		 0.00025049		 0.00025044		-0.00010153	
Si		5.21007634		1.13869623		0.40280179		-0.00025051		-0.00025045		-0.00010162	
Mg		0.00000000		0.00000000		0.00000000		 0.00000001		 0.00000007		-0.00000002	
Mg		4.07137856		4.07137702		0.00000000		-0.00000008		 0.00000002		-0.00000004	
O		4.07137856		0.00000000		0.94764542		-0.00000001		-0.00000003		-0.00004350	
O		0.00000000		4.07137702		4.36131617		 0.00000001		-0.00000001		 0.00004374	
O		1.22667213		2.84470720		1.21175864		 0.00050333		-0.00050326		 0.00071274	
O		6.91608422		5.29804761		1.21175864		-0.00050331		 0.00050330		 0.00071274	
O		2.84470643		6.91608345		4.09720217		-0.00050324		-0.00050322		-0.00071132	
O		5.29805070		1.22667059		4.09720217		 0.00050320		 0.00050325		-0.00071117	
O		0.65141405		1.53712903		4.15904990		 0.00021526		 0.00035600		 0.00004860	
O		7.49134308		6.60562501		4.15904990		-0.00021521		-0.00035600		 0.00004865	
O		1.53712980		7.49134308		1.14991169		 0.00035550		-0.00021519		-0.00004831	
O		6.60562656		0.65141173		1.14991169		-0.00035547		 0.00021515		-0.00004830	
O		3.41996529		5.60850682		1.14991169		-0.00021510		 0.00035550		-0.00004839	
O		4.72279106		2.53424722		1.14991169		 0.00021513		-0.00035549		-0.00004841	
O		2.53424876		3.41996606		4.15904913		-0.00035599		-0.00021534		 0.00004875	
O		5.60850836		4.72278875		4.15904913		 0.00035600		 0.00021528		 0.00004872	
