# total energy = -18525.3122349 eV

CRYSTAL
PRIMVEC
		4.68600185		0.00000000		-0.74976238
		-2.34299855		4.05819669		0.37487882
		-2.12656114		0.00000000		13.29100239
PRIMECORD
   30 1
O		0.91170415		0.13229694		2.98302886		-0.00001005		-0.00015643		-0.00021318
O		-0.69526389		3.92589785		9.93309139		 0.00001005		 0.00015643		 0.00021318
O		3.34490995		1.16835389		2.59371629		 0.00010596		-0.00050242		 0.00005266
O		-3.12847017		2.88984090		10.32240443		-0.00010596		 0.00050242		-0.00005266
O		1.23105516		2.75754301		2.93193296		 0.00083478		-0.00020912		 0.00010363
O		-1.01461490		1.30065083		9.98418729		-0.00083478		 0.00020912		-0.00010363
O		2.54585120		1.48502885		7.03848211		-0.00001008		-0.00015643		-0.00021321
O		0.72244195		1.22043402		1.07242487		 0.00001010		 0.00015639		 0.00021321
O		0.29305610		2.52108628		7.39893003		 0.00010600		-0.00050239		 0.00005266
O		2.97523705		0.18437707		0.71197790		-0.00010599		 0.00050236		-0.00005265
O		0.52220223		0.05208013		7.36226598		 0.00083479		-0.00020912		 0.00010367
O		2.74609092		2.65338322		0.74864100		-0.00083477		 0.00020913		-0.00010365
O		-0.50600217		2.83776029		11.84369633		-0.00001010		-0.00015639		-0.00021321
O		-2.32941094		2.57316594		5.87763814		 0.00001008		 0.00015643		 0.00021321
O		-2.75879727		3.87381819		12.20414330		 0.00010599		-0.00050236		 0.00005265
O		-0.07661679		1.53710899		5.51719117		-0.00010600		 0.00050239		-0.00005266
O		-2.52965114		1.40481205		12.16747925		 0.00083477		-0.00020913		 0.00010365
O		-0.30576198		4.00611513		5.55385426		-0.00083479		 0.00020912		-0.00010367
Mg		-0.76258405		0.00000000		4.76615317		 0.00047538		 0.00022625		-0.00019327
Mg		-1.36397614		0.00000000		8.52484733		-0.00047538		-0.00022625		 0.00019327
Mg		0.87156205		1.35273191		8.82160642		 0.00047536		 0.00022624		-0.00019326
Mg		0.27017091		1.35273191		12.58030105		-0.00047541		-0.00022623		 0.00019331
Mg		-0.05373113		2.70546288		0.33581919		 0.00047541		 0.00022623		-0.00019331
Mg		-0.65512179		2.70546288		4.09451430		-0.00047536		-0.00022624		 0.00019326
Si		-0.33387018		0.00000000		2.08668717		-0.00008437		-0.00007912		-0.00002151
Si		-1.79269002		0.00000000		11.20431332		 0.00008437		 0.00007912		 0.00002151
Si		1.30027688		1.35273191		6.14214090		-0.00008439		-0.00007910		-0.00002143
Si		1.96801723		1.35273191		1.96876608		 0.00008440		 0.00007911		 0.00002135
Si		-1.75157697		2.70546288		10.94735416		-0.00008440		-0.00007911		-0.00002135
Si		-1.08383709		2.70546288		6.77398030		 0.00008439		 0.00007910		 0.00002143
