# total energy = -18531.8793779 eV

CRYSTAL
PRIMVEC
		4.68599846		0.00000000		0.37487894
		-2.34300158		4.05819318		-0.18744182
		1.06327974		0.00000000		13.29099906
PRIMECORD
   30 1
O		1.68236989		0.13229708		3.32514397		-0.00004110		 0.00085962		-0.00004078
O		1.72391002		3.92589798		10.15329550		 0.00004110		-0.00085962		 0.00004078
O		4.11557464		1.16835396		3.51980084		 0.00023399		 0.00019323		 0.00002092
O		-0.70929474		2.88984063		9.95863863		-0.00023399		-0.00019323		-0.00002092
O		2.00172096		2.75754308		3.35069187		 0.00000849		 0.00058233		 0.00006370
O		1.40455895		1.30065104		10.12774760		-0.00000849		-0.00058233		-0.00006370
O		4.37979601		1.48502877		7.94291771		-0.00004141		 0.00085958		-0.00003973
O		1.01505718		1.22043414		1.29262883		 0.00004167		-0.00085959		 0.00003864
O		2.12700183		2.52108565		7.76269376		 0.00023395		 0.00019344		 0.00002208
O		3.26785088		0.18437679		1.47285278		-0.00023383		-0.00019368		-0.00002319
O		2.35614691		0.05208018		7.78102567		 0.00000811		 0.00058224		 0.00006485
O		3.03870581		2.65338273		1.45452087		-0.00000765		-0.00058221		-0.00006593
O		2.39122273		2.83775998		12.18581063		-0.00004167		 0.00085959		-0.00003864
O		-0.97351610		2.57316583		5.53552270		 0.00004141		-0.00085958		 0.00003973
O		0.13842902		3.87381781		12.00558622		 0.00023383		 0.00019368		 0.00002319
O		1.27927807		1.53710894		5.71574570		-0.00023395		-0.00019344		-0.00002208
O		0.36757410		1.40481187		12.02391859		 0.00000765		 0.00058221		 0.00006593
O		1.05013300		4.00611488		5.69741380		-0.00000811		-0.00058224		-0.00006485
Mg		0.38129200		0.00000000		4.76615284		 0.00034531		 0.00026504		 0.00013394
Mg		0.68198773		0.00000000		8.52484669		-0.00034531		-0.00026504		-0.00013394
Mg		3.07871907		1.35273216		9.38392564		 0.00034544		 0.00026505		 0.00013407
Mg		3.37941480		1.35273216		13.14262043		-0.00034539		-0.00026506		-0.00013397
Mg		0.02686605		2.70546290		0.33581904		 0.00034539		 0.00026506		 0.00013397
Mg		0.32756084		2.70546290		4.09451382		-0.00034544		-0.00026505		-0.00013407
Si		0.16693477		0.00000000		2.08668678		 0.00015999		-0.00046118		-0.00034077
Si		0.89634496		0.00000000		11.20431228		-0.00015999		 0.00046118		 0.00034077
Si		2.86436184		1.35273216		6.70446052		 0.00016031		-0.00046118		-0.00034228
Si		2.53049182		1.35273216		2.53108602		-0.00016055		 0.00046116		 0.00034376
Si		0.87578809		2.70546290		10.94735344		 0.00016055		-0.00046116		-0.00034376
Si		0.54191807		2.70546290		6.77397989		-0.00016031		 0.00046118		 0.00034228
