# total energy = -18509.1104384 eV	

CRYSTAL	
PRIMVEC	
		7.02599999		0.00000000		0.00000000	
		0.00000000		6.07229777		0.00000000	
		-0.43440353		0.00000000		4.23980456	
PRIMCOORD
   30 1	
Mg		0.16677405		1.51807479		2.28101478		-0.00012331		0.00000000		-0.00058585	
Mg		6.42482381		4.55422509		1.95878978		 0.00012331		0.00000000		 0.00058585	
Mg		4.73063390		1.51807479		3.88790033		-0.00002990		0.00000000		 0.00082301	
Mg		1.86096467		4.55422509		0.35190424		 0.00002990		0.00000000		-0.00082301	
Mg		2.80620688		1.51807479		0.17807186		 0.00006078		0.00000000		 0.00059785	
Mg		3.78539099		4.55422509		4.06173200		-0.00006078		-0.00000000		-0.00059785	
Si		0.00000000		0.00000000		0.00000000		0.00000000		0.00000000		0.00000000	
Si		0.00000000		3.03615029		0.00000000		0.00000000		0.00000000		0.00000000	
Si		2.07748702		3.04829473		2.35309100		 0.00049793		 0.00046104		-0.00021357	
Si		4.51411084		3.02400585		1.88671285		-0.00049793		-0.00046104		 0.00021357	
Si		4.51411084		0.01214374		1.88671285		-0.00049793		 0.00046104		 0.00021357	
Si		2.07748702		6.06015614		2.35309100		 0.00049793		-0.00046104		-0.00021357	
O		5.50377634		3.40048774		0.59357334		 0.00011501		-0.00043043		 0.00016799	
O		1.08782223		2.67181214		3.64623192		-0.00011501		 0.00043043		-0.00016799	
O		1.08782223		0.36433815		3.64623192		-0.00011501		-0.00043043		-0.00016799	
O		5.50377634		5.70796173		0.59357334		 0.00011501		 0.00043043		 0.00016799	
O		5.86321666		2.67788401		2.77707216		 0.00008482		 0.00016457		 0.00033119	
O		0.72838120		3.39441587		1.46273310		-0.00008482		-0.00016457		-0.00033119	
O		0.72838120		5.71403431		1.46273310		-0.00008482		 0.00016457		-0.00033119	
O		5.86321666		0.35826628		2.77707216		 0.00008482		-0.00016457		 0.00033119	
O		1.96359767		1.51807479		1.81887612		-0.00003544		-0.00000000		-0.00016608	
O		4.62800090		4.55422509		2.42092774		 0.00003544		-0.00000000		 0.00016608	
O		3.11234796		3.37012699		1.03027226		 0.00003589		-0.00000615		-0.00013289	
O		3.47924990		2.70217430		3.20953230		-0.00003589		 0.00000615		 0.00013289	
O		3.47924990		0.33397669		3.20953230		-0.00003589		-0.00000615		 0.00013289	
O		3.11234796		5.73832389		1.03027226		 0.00003589		 0.00000615		-0.00013289	
O		4.38877614		1.51807479		1.32705893		-0.00008514		0.00000000		 0.00055446	
O		2.20282173		4.55422509		2.91274633		 0.00008514		0.00000000		-0.00055446	
O		6.82103681		1.51807479		0.49181719		 0.00021870		-0.00000000		 0.00006393	
O		-0.22943895		4.55422509		3.74798667		-0.00021870		-0.00000000		-0.00006393	
