# total energy = -8279.28515574 eV	

CRYSTAL	
PRIMVEC	
		4.24512180		0.00000000		0.00000000	
		0.00000000		4.24512180		0.00000000	
		0.00000000		0.00000000		4.24512180	
PRIMCOORD
   8 1	
Mg		0.00000000		0.00000000		0.00000000		-0.00000009		-0.00000003		 0.00000008	
Mg		0.00000000		2.12256048		2.12256006		-0.00000005		-0.00000004		 0.00000006	
Mg		2.12256006		0.00000000		2.12256006		 0.00000005		-0.00000007		-0.00000003	
Mg		2.12256006		2.12256006		0.00000000		-0.00000012		 0.00000016		-0.00000007	
O		2.12255964		2.12256048		2.12255964		 0.00000022		 0.00000010		 0.00000021	
O		2.12256048		0.00000000		0.00000000		-0.00000009		-0.00000029		0.00000000	
O		0.00000000		2.12256048		0.00000000		 0.00000023		0.00000000		-0.00000021	
O		0.00000000		0.00000000		2.12256048		-0.00000014		 0.00000016		-0.00000004	
