# total energy = -8279.25299417 eV	

CRYSTAL	
PRIMVEC	
		4.27022778		0.00000000		0.00000000	
		0.00000000		4.27022778		0.00000000	
		0.00000000		0.00000000		4.27022778	
PRIMCOORD
   8 1	
Mg		0.00000000		0.00000000		0.00000000		-0.00000002		-0.00000009		 0.00000005	
Mg		0.00000000		2.13511431		2.13511431		-0.00000002		-0.00000007		 0.00000001	
Mg		2.13511389		0.00000000		2.13511389		 0.00000002		-0.00000000		 0.00000002	
Mg		2.13511389		2.13511347		0.00000000		0.00000000		 0.00000013		-0.00000007	
O		2.13511347		2.13511389		2.13511389		 0.00000013		 0.00000001		 0.00000010	
O		2.13511431		0.00000000		0.00000000		-0.00000008		-0.00000016		-0.00000002	
O		0.00000000		2.13511389		0.00000000		0.00000000		 0.00000007		-0.00000004	
O		0.00000000		0.00000000		2.13511431		-0.00000004		 0.00000009		-0.00000007	
