# total energy = -8279.28596161 eV	

CRYSTAL	
PRIMVEC	
		4.19954615		0.00000000		0.00000000	
		0.00000000		4.19954615		0.00000000	
		0.00000000		0.00000000		4.19954615	
PRIMCOORD
   8 1	
Mg		0.00000000		0.00000000		0.00000000		-0.00000032		-0.00000009		-0.00000009	
Mg		0.00000000		2.09977349		2.09977307		-0.00000043		-0.00000062		 0.00000034	
Mg		2.09977349		0.00000000		2.09977265		-0.00000001		-0.00000001		-0.00000009	
Mg		2.09977307		2.09977097		0.00000000		-0.00000014		 0.00000042		-0.00000007	
O		2.09977265		2.09977181		2.09977349		 0.00000008		 0.00000014		-0.00000009	
O		2.09977349		0.00000000		0.00000000		-0.00000016		-0.00000030		 0.00000048	
O		0.00000000		2.09977307		0.00000000		 0.00000094		-0.00000034		-0.00000072	
O		0.00000000		0.00000000		2.09977265		 0.00000004		 0.00000080		 0.00000024	
