# total energy = -24716.375412 eV	

CRYSTAL	
PRIMVEC	
		9.30862034		0.00000000		-0.53363608	
		0.00000000		8.74751926		0.00000000	
		1.28335208		0.00000000		4.79171744	
PRIMCOORD
   40 1	
Si		2.14084279		3.57714499		0.90682121		 0.00032447		 0.00023509		 0.00007636	
Si		8.45112867		5.17037717		3.35126015		-0.00032408		-0.00023474		-0.00007669	
Si		3.15508340		7.95094722		1.22226401		-0.00010143		 0.00007808		-0.00021858	
Si		7.43688805		0.79657591		3.03581735		 0.00010118		-0.00007785		 0.00021877	
Si		7.80864233		3.57794851		0.95542854		-0.00045258		-0.00001060		-0.00003446	
Si		2.78333010		5.16957365		3.30265282		 0.00045227		 0.00001088		 0.00003473	
Si		6.79601844		7.95174493		0.63994314		 0.00024282		-0.00014940		 0.00016389	
Si		3.79595302		0.79577723		3.61813919		-0.00024247		 0.00014976		-0.00016416	
O		3.70069391		3.57723502		0.46736770		-0.00010283		 0.00000579		-0.00016186	
O		6.89127754		5.17028714		3.79071366		 0.00010269		-0.00000574		 0.00016192	
O		1.59532425		7.95099466		1.66166039		-0.00003119		 0.00001650		 0.00020370	
O		8.99664818		0.79652848		2.59642097		 0.00003134		-0.00001654		-0.00020370	
O		8.34151264		2.30826891		0.16043160		 0.00004482		 0.00002619		-0.00039063	
O		2.25045881		6.43925326		4.09764977		-0.00004462		-0.00002646		 0.00039035	
O		6.26306874		6.68199175		1.43499914		 0.00003731		 0.00016753		 0.00030981	
O		4.32890272		2.06553042		2.82308222		-0.00003759		-0.00016787		-0.00030965	
O		2.51431350		3.84089803		4.30525784		 0.00011801		-0.00009175		-0.00028028	
O		8.07765796		4.90662414		-0.04717648		-0.00011809		 0.00009160		 0.00028031	
O		4.06503351		8.21465766		2.61549060		-0.00014741		-0.00007585		 0.00029819	
O		6.52693892		0.53286547		1.64259076		 0.00014744		 0.00007594		-0.00029822	
O		8.71785377		3.84084091		2.34920017		 0.00014714		-0.00004413		 0.00008308	
O		1.87411768		4.90668126		1.90888216		-0.00014720		 0.00004402		-0.00008308	
O		7.17009615		8.21460151		4.03792961		-0.00011756		-0.00003127		-0.00009887	
O		3.42187530		0.53292162		0.22015175		 0.00011757		 0.00003137		 0.00009892	
O		1.60448054		2.30883621		1.70157128		 0.00048755		 0.00005283		 0.00031123	
O		8.98749189		6.43868595		2.55651008		-0.00048771		-0.00005313		-0.00031102	
O		3.69153085		6.68255422		0.42744326		-0.00057651		 0.00020969		-0.00021974	
O		6.90044061		2.06496795		3.83063810		 0.00057663		-0.00020992		 0.00021970	
O		6.24876700		3.57869008		1.39518700		 0.00008087		-0.00027507		-0.00002973	
O		4.34320446		5.16883209		2.86289436		-0.00008070		 0.00027517		 0.00002969	
O		8.35580954		7.95245068		0.20023600		 0.00004514		-0.00026532		-0.00000932	
O		2.23616288		0.79507149		4.05784537		-0.00004531		 0.00026529		 0.00000931	
Mg		0.31983410		0.82753188		1.19792016		 0.00007034		-0.00030148		-0.00002035	
Mg		0.96351895		7.91999028		3.59379438		-0.00007037		 0.00030157		 0.00002034	
Mg		4.97615211		5.20129538		0.93112148		-0.00007035		-0.00031819		 0.00001962	
Mg		5.61582031		3.54622678		3.32695988		 0.00007038		 0.00031784		-0.00001961	
Mg		0.32174319		6.35717580		1.19801504		-0.00006465		-0.00018180		-0.00017654	
Mg		0.96160889		2.39034636		3.59370047		 0.00006463		 0.00018186		 0.00017664	
Mg		4.97424302		1.98340649		0.93102564		 0.00006459		-0.00015731		 0.00017694	
Mg		5.61772941		6.76411567		3.32705572		-0.00006456		 0.00015739		-0.00017703	
