# total energy = -24716.3161693 eV	

CRYSTAL	
PRIMVEC	
		9.69757388		0.00000000		-0.18047320	
		0.00000000		9.05866660		0.00000000	
		1.52862022		0.00000000		4.94350584	
PRIMCOORD
   40 1	
Si		2.33822095		3.71672275		1.13097121		 0.00007100		 0.00039458		-0.00014105	
Si		8.88796734		5.34194482		3.63206530		-0.00007096		-0.00039448		 0.00014102	
Si		3.27468054		8.24620707		1.25066128		 0.00058927		-0.00010271		-0.00023724	
Si		7.95150678		0.81246050		3.51237426		-0.00058929		 0.00010273		 0.00023726	
Si		8.12795462		3.72604748		1.15905482		-0.00051177		 0.00014503		 0.00035550	
Si		3.09823367		5.33262008		3.60398169		 0.00051173		-0.00014493		-0.00035547	
Si		7.18290218		8.25553084		1.04187406		-0.00014525		-0.00035030		 0.00002104	
Si		4.04328611		0.80313673		3.72116148		 0.00014530		 0.00035032		-0.00002110	
O		3.90717415		3.69697835		0.64951184		-0.00068252		 0.00037224		 0.00006273	
O		7.31901413		5.36168922		4.11352370		 0.00068251		-0.00037228		-0.00006272	
O		1.70603035		8.22630197		1.73196575		 0.00029417		 0.00040375		 0.00006444	
O		9.52015697		0.83236560		3.03106979		-0.00029421		-0.00040377		-0.00006442	
O		8.72618040		2.39052546		0.48783721		 0.00007131		-0.00035924		-0.00082455	
O		2.50000789		6.66814211		4.27519931		-0.00007131		 0.00035923		 0.00082451	
O		6.58440340		6.91971354		1.71327465		 0.00020457		 0.00012205		 0.00059168	
O		4.64178392		2.13895402		3.04976090		-0.00020465		-0.00012215		-0.00059166	
O		2.93975376		4.10970842		4.73969369		-0.00017605		 0.00040965		-0.00012149	
O		8.28643453		4.94896012		0.02334186		 0.00017592		-0.00040965		 0.00012148	
O		4.20198287		8.63903397		2.58531880		 0.00009154		 0.00043859		 0.00016810	
O		7.02420445		0.41963359		2.17771675		-0.00009150		-0.00043867		-0.00016808	
O		9.05350179		4.12416990		2.49240927		 0.00002238		-0.00040897		 0.00051226	
O		2.17268650		4.93449767		2.27062724		-0.00002234		 0.00040900		-0.00051227	
O		7.78575547		8.65349545		4.65216099		 0.00006128		-0.00037832		-0.00056178	
O		3.44043281		0.40517212		0.11087456		-0.00006116		 0.00037838		 0.00056179	
O		1.74378625		2.38013000		1.80296137		-0.00018432		-0.00047971		 0.00038883	
O		9.48240204		6.67853757		2.96007515		 0.00018425		 0.00047959		-0.00038871	
O		3.86939018		6.90931809		0.57848719		-0.00009246		 0.00000480		-0.00015415	
O		7.35679811		2.14934948		4.18454933		 0.00009263		-0.00000490		 0.00015415	
O		6.55923667		3.70237260		1.64213091		 0.00023383		 0.00005064		-0.00016017	
O		4.66695162		5.35629497		3.12090463		-0.00023381		-0.00005063		 0.00016018	
O		8.75131905		8.23169719		0.55895190		 0.00015221		 0.00008077		 0.00003354	
O		2.47486924		0.82697038		4.20408365		-0.00015231		-0.00008075		-0.00003360	
Mg		0.38393587		0.90902751		1.23537983		-0.00030071		-0.00020224		 0.00023265	
Mg		1.14468144		8.14964006		3.70813086		 0.00030076		 0.00020230		-0.00023267	
Mg		5.22915827		5.43837823		1.14613843		 0.00030108		-0.00025856		-0.00023295	
Mg		5.99703002		3.62028934		3.61689711		-0.00030113		 0.00025874		 0.00023293	
Mg		0.37615138		6.73360697		1.23598198		 0.00015532		-0.00019773		-0.00028675	
Mg		1.15246593		2.32506060		3.70752870		-0.00015527		 0.00019767		 0.00028667	
Mg		5.23694276		2.20424656		1.14553627		-0.00015622		-0.00011738		 0.00028688	
Mg		5.98924553		6.85442101		3.61749927		 0.00015617		 0.00011730		-0.00028680	
