# total energy = -49441.0588882 eV	

CRYSTAL	
PRIMVEC	
		14.02399962		0.00000000		0.00000000	
		0.00000000		4.59810485		0.00000000	
		0.00000000		0.00000000		8.73299700	
PRIMCOORD
   70 1	
Mg		2.42755433		1.50771739		0.04628481		-0.00033687		-0.00069330		 0.00041263	
Mg		11.59644529		3.09038325		0.04628481		 0.00033687		 0.00069330		 0.00041263	
Mg		9.43955414		0.79133363		4.41278471		-0.00033687		 0.00069330		 0.00041263	
Mg		4.58444548		3.80676702		4.41278471		 0.00033687		-0.00069330		 0.00041263	
Mg		2.48925993		3.84309198		1.53002257		 0.00027843		 0.00021755		 0.00002888	
Mg		11.53473969		0.75500867		1.53002257		-0.00027843		-0.00021755		 0.00002888	
Mg		9.50125974		3.05405829		5.89652106		 0.00027843		-0.00021755		 0.00002888	
Mg		4.52273988		1.54404236		5.89652106		-0.00027843		 0.00021755		 0.00002888	
Mg		4.54377588		1.59140140		2.83123937		-0.00002787		 0.00000306		 0.00017814	
Mg		9.48022374		3.00669784		2.83123937		 0.00002787		-0.00000306		 0.00017814	
Mg		11.55577569		0.70764822		7.19773927		-0.00002787		-0.00000306		 0.00017814	
Mg		2.46822393		3.89045243		7.19773927		 0.00002787		 0.00000306		 0.00017814	
Mg		0.00000000		2.29904962		7.23616363		0.00000000		0.00000000		-0.00019276	
Mg		7.01199981		0.00000000		2.86966373		0.00000000		0.00000000		-0.00019276	
Mg		0.00000000		2.29904962		1.63307091		0.00000000		0.00000000		 0.00065853	
Mg		7.01199981		0.00000000		5.99957082		0.00000000		0.00000000		 0.00065853	
Mg		0.00000000		0.00000000		5.78561226		0.00000000		0.00000000		-0.00006079	
Mg		7.01199981		2.29904962		1.41911236		0.00000000		0.00000000		-0.00006079	
Mg		0.00000000		0.00000000		3.01725090		0.00000000		0.00000000		-0.00002043	
Mg		7.01199981		2.29904962		7.38375080		0.00000000		0.00000000		-0.00002043	
Si		0.00000000		0.00000000		0.06724368		0.00000000		0.00000000		-0.00020314	
Si		7.01199981		2.29904962		4.43374358		0.00000000		0.00000000		-0.00020314	
Si		5.28143826		0.06483295		0.04453742		-0.00015083		-0.00010515		-0.00037959	
Si		8.74256136		4.53326629		0.04453742		 0.00015083		 0.00010515		-0.00037959	
Si		12.29343807		2.23421667		4.41103732		-0.00015083		 0.00010515		-0.00037959	
Si		1.73056155		2.36388257		4.41103732		 0.00015083		-0.00010515		-0.00037959	
O		5.82416704		3.25913263		8.67710855		 0.00017020		-0.00005459		-0.00031146	
O		8.19983258		1.33896661		8.67710855		-0.00017020		 0.00005459		-0.00031146	
O		12.83616825		3.63801623		4.31060865		 0.00017020		 0.00005459		-0.00031146	
O		1.18783277		0.96008301		4.31060865		-0.00017020		-0.00005459		-0.00031146	
O		1.09807917		3.18694269		0.04366513		-0.00019525		-0.00044394		 0.00012645	
O		12.92592045		1.41115655		0.04366513		 0.00019525		 0.00044394		 0.00012645	
O		8.11007898		3.71020757		4.41016503		-0.00019525		 0.00044394		 0.00012645	
O		5.91392064		0.88789307		4.41016503		 0.00019525		-0.00044394		 0.00012645	
O		3.49898791		0.10115791		3.01375752		 0.00068175		 0.00010547		 0.00024165	
O		10.52501171		4.49694133		3.01375752		-0.00068175		-0.00010547		 0.00024165	
O		10.51098912		2.19789171		7.38025742		 0.00068175		-0.00010547		 0.00024165	
O		3.51301190		2.40020753		7.38025742		-0.00068175		 0.00010547		 0.00024165	
O		3.57892470		2.35422705		1.41474529		-0.00045004		-0.00007122		-0.00000283	
O		10.44507492		2.24387360		1.41474529		 0.00045004		 0.00007122		-0.00000283	
O		10.59092451		4.54292322		5.78124519		-0.00045004		 0.00007122		-0.00000283	
O		3.43307511		0.05517743		5.78124519		 0.00045004		-0.00007122		-0.00000283	
O		1.06582397		0.66212631		1.33702148		-0.00010495		-0.00030603		-0.00021824	
O		12.95817705		3.93597433		1.33702148		 0.00010495		 0.00030603		-0.00021824	
O		8.07782378		1.63692331		5.70352138		-0.00010495		 0.00030603		-0.00021824	
O		5.94617584		2.96117593		5.70352138		 0.00010495		-0.00030603		-0.00021824	
O		6.02751504		2.97497134		3.16047240		 0.00003723		-0.00027018		-0.00018073	
O		7.99648318		1.62312930		3.16047240		-0.00003723		 0.00027018		-0.00018073	
O		13.03951625		3.92217892		7.52697230		 0.00003723		 0.00027018		-0.00018073	
O		0.98448477		0.67592032		7.52697230		-0.00003723		-0.00027018		-0.00018073	
O		5.81294784		0.70350833		1.39640751		-0.00058273		-0.00021828		-0.00029587	
O		8.21105178		3.89459091		1.39640751		 0.00058273		 0.00021828		-0.00029587	
O		12.82494765		1.59554129		5.76290741		-0.00058273		 0.00021828		-0.00029587	
O		1.19905197		3.00255935		5.76290741		 0.00058273		-0.00021828		-0.00029587	
O		1.24673357		3.14969916		3.03821117		-0.00011781		 0.00029189		-0.00004611	
O		12.77726605		1.44840149		3.03821117		 0.00011781		-0.00029189		-0.00004611	
O		8.25873338		3.74745251		7.40471107		-0.00011781		-0.00029189		-0.00004611	
O		5.76526624		0.85064954		7.40471107		 0.00011781		 0.00029189		-0.00004611	
O		3.64343510		0.02207097		0.06113061		-0.00004166		-0.00016661		 0.00015713	
O		10.38056592		4.57602827		0.06113061		 0.00004166		 0.00016661		 0.00015713	
O		10.65543491		2.27697865		4.42763051		-0.00004166		 0.00016661		 0.00015713	
O		3.36856471		2.32112059		4.42763051		 0.00004166		-0.00016661		 0.00015713	
H		4.20719989		2.75886011		0.87329970		 0.00000311		-0.00039851		 0.00028172	
H		9.81679973		1.83924054		0.87329970		-0.00000311		 0.00039851		 0.00028172	
H		11.21919970		4.13829016		5.23979960		 0.00000311		 0.00039851		 0.00028172	
H		2.80479992		0.45981049		5.23979960		-0.00000311		-0.00039851		 0.00028172	
H		3.78647990		0.82765859		3.92985005		-0.00015928		 0.00006694		-0.00008245	
H		10.23751972		3.77044205		3.92985005		 0.00015928		-0.00006694		-0.00008245	
H		10.79847971		1.47139243		8.29634995		-0.00015928		-0.00006694		-0.00008245	
H		3.22551991		3.12670821		8.29634995		 0.00015928		 0.00006694		-0.00008245	
