# total energy = -4138.86206455 eV	

CRYSTAL	
PRIMVEC	
		2.97700805		0.00000000		0.00000000	
		-1.48850402		2.86462897		0.00000000	
		0.00000000		0.00000000		4.98288333	
PRIMCOORD
   4 1	
Mg		0.00000000		1.90975215		0.01076188		0.00000000		-0.00083537		 0.00014359	
Mg		1.48850402		0.95487593		2.50220206		0.00000000		 0.00083537		 0.00014359	
O		0.00000000		1.90975215		2.00531203		0.00000000		 0.00026261		-0.00014359	
O		1.48850402		0.95487593		4.49675309		0.00000000		-0.00026261		-0.00014359	
