# total energy = -4139.18188676 eV	

CRYSTAL	
PRIMVEC	
		3.47317570		0.00000000		0.00000000	
		-1.73658785		2.86462670		0.00000000	
		0.00000000		0.00000000		4.98288183	
PRIMCOORD
   4 1	
Mg		0.00000000		1.90975171		0.01076198		0.00000000		 0.00071101		-0.00059625	
Mg		1.73658785		0.95487603		2.50220185		0.00000000		-0.00071101		-0.00059625	
O		0.00000000		1.90975171		2.00531197		0.00000000		 0.00006866		 0.00059625	
O		1.73658785		0.95487603		4.49675254		0.00000000		-0.00006866		 0.00059625	
