# total energy = -4139.02071631 eV	

CRYSTAL	
PRIMVEC	
		3.05970310		0.00000000		0.00000000	
		-1.52985155		2.86462867		0.00000000	
		0.00000000		0.00000000		4.98288254	
PRIMCOORD
   4 1	
Mg		0.00000000		1.90975194		0.01076189		0.00000000		-0.00077183		 0.00043973	
Mg		1.52985094		0.95487612		2.50220194		0.00000000		 0.00077183		 0.00043973	
O		0.00000000		1.90975194		2.00531197		0.00000000		-0.00000918		-0.00043973	
O		1.52985094		0.95487612		4.49675324		0.00000000		 0.00000918		-0.00043973	
