# total energy = -24715.7478983 eV	

CRYSTAL	
PRIMVEC	
		9.13260574		0.00000000		0.00000000	
		0.00000000		8.82246244		0.00000000	
		-1.54605882		0.00000000		4.91197199	
PRIMCOORD
   40 1	
Mg		1.93589597		5.76459572		1.07424832		-0.00004386		 0.00005655		 0.00017897	
Mg		5.65065276		3.05786490		3.83772185		 0.00004386		-0.00005655		-0.00017897	
Mg		6.42368218		1.35336541		1.38173676		 0.00004386		 0.00005655		-0.00017897	
Mg		1.16286839		7.46909521		3.53023249		-0.00004386		-0.00005655		 0.00017897	
Mg		2.00978789		0.10675194		1.06000328		 0.00032534		 0.00003028		-0.00017129	
Mg		5.57676176		8.71570868		3.85196689		-0.00032534		-0.00003028		 0.00017129	
Mg		6.34979026		4.51798225		1.39598180		-0.00032534		 0.00003028		 0.00017129	
Mg		1.23676030		4.30447745		3.51598745		 0.00032534		-0.00003028		-0.00017129	
Si		-0.03864371		2.99610657		1.46327632		-0.00094425		 0.00029849		-0.00010222	
Si		7.62519336		5.82635314		3.44869385		 0.00094425		-0.00029849		 0.00010222	
Si		8.39822186		7.40733687		0.99270876		 0.00094425		 0.00029849		 0.00010222	
Si		-0.81167221		1.41512283		3.91926049		-0.00094425		-0.00029849		-0.00010222	
Si		4.69878684		7.39057489		1.11108834		-0.00061591		 0.00037067		-0.00074405	
Si		2.88776281		1.43188481		3.80088183		 0.00061591		-0.00037067		 0.00074405	
Si		3.66079131		2.97934458		1.34489674		 0.00061591		 0.00037067		 0.00074405	
Si		3.92575925		5.84311512		3.56707160		-0.00061591		-0.00037067		-0.00074405	
O		7.64664402		3.00757712		0.92295940		-0.00021361		 0.00038963		 0.00026248	
O		-0.06009437		5.81488259		3.98901077		 0.00021361		-0.00038963		-0.00026248	
O		0.71293413		7.41880651		1.53302568		 0.00021361		 0.00038963		-0.00026248	
O		6.87361552		1.40365319		3.37894357		-0.00021361		-0.00038963		 0.00026248	
O		0.64651360		4.41652265		1.57575989		 0.00037458		 0.00030837		-0.00016915	
O		6.94003605		4.40593705		3.33621028		-0.00037458		-0.00030837		 0.00016915	
O		7.71306364		0.00529326		0.88022520		-0.00037458		 0.00030837		 0.00016915	
O		-0.12651399		8.81716645		4.03174497		 0.00037458		-0.00030837		-0.00016915	
O		0.00694809		2.47911067		3.00710770		 0.00011886		 0.00031573		 0.00060598	
O		7.57960156		6.34334904		1.90486155		-0.00011886		-0.00031573		-0.00060598	
O		6.80657398		6.89034189		4.36084664		-0.00011886		 0.00031573		-0.00060598	
O		0.77997659		1.93211873		0.55112262		 0.00011886		-0.00031573		 0.00060598	
O		3.22393768		7.39233840		0.62922284		-0.00010164		 0.00009597		 0.00042807	
O		4.36261197		1.43012131		4.28274733		 0.00010164		-0.00009597		-0.00042807	
O		5.13563956		2.98110900		1.82676225		 0.00010164		 0.00009597		-0.00042807	
O		2.45091010		5.84135070		3.08520792		-0.00010164		-0.00009597		 0.00042807	
O		5.20212492		8.61424999		1.95791103		-0.00028036		-0.00062764		 0.00093029	
O		2.38442473		0.20820971		2.95405914		 0.00028036		 0.00062764		-0.00093029	
O		3.15745322		4.20301968		0.49807405		 0.00028036		-0.00062764		-0.00093029	
O		4.42909643		4.61944002		4.41389612		-0.00028036		 0.00062764		 0.00093029	
O		4.82482410		6.13160957		2.20203563		 0.00049340		-0.00027624		-0.00061046	
O		2.76172555		2.69085013		2.70993363		-0.00049340		 0.00027624		 0.00061046	
O		3.53475404		1.72038018		0.25394854		-0.00049340		-0.00027624		 0.00061046	
O		4.05179561		7.10208044		4.65802071		 0.00049340		 0.00027624		-0.00061046	
