# total energy = -24714.4636587 eV	

CRYSTAL	
PRIMVEC	
		8.89227462		0.00000000		0.00000000	
		0.00000000		8.82246137		0.00000000	
		-1.50537317		0.00000000		4.91196801	
PRIMCOORD
   40 1	
Mg		1.88495236		5.76459576		1.07424813		 0.00005541		-0.00017125		 0.00011045	
Mg		5.50195175		3.05786473		3.83772166		-0.00005541		 0.00017125		-0.00011045	
Mg		6.25463656		1.35336507		1.38173676		-0.00005541		-0.00017125		-0.00011045	
Mg		1.13226667		7.46909452		3.53023302		 0.00005541		 0.00017125		 0.00011045	
Mg		1.95689887		0.10675176		1.06000271		 0.00009135		-0.00061011		-0.00017613	
Mg		5.43000436		8.71570872		3.85196708		-0.00009135		 0.00061011		 0.00017613	
Mg		6.18269006		4.51798155		1.39598219		-0.00009135		-0.00061011		 0.00017613	
Mg		1.20421317		4.30447804		3.51598760		 0.00009135		 0.00061011		-0.00017613	
Si		-0.03762677		2.99610699		1.46327625		-0.00063268		-0.00012354		-0.00001311	
Si		7.42453089		5.82635260		3.44869353		 0.00063268		 0.00012354		 0.00001311	
Si		8.17721569		7.40733678		0.99270864		 0.00063268		-0.00012354		 0.00001311	
Si		-0.79031158		1.41512281		3.91926115		-0.00063268		 0.00012354		-0.00001311	
Si		4.57513487		7.39057485		1.11108794		-0.00025170		 0.00023144		-0.00078990	
Si		2.81176925		1.43188475		3.80088185		 0.00025170		-0.00023144		 0.00078990	
Si		3.56445494		2.97934505		1.34489696		 0.00025170		 0.00023144		 0.00078990	
Si		3.82244917		5.84311454		3.56707194		-0.00025170		-0.00023144		-0.00078990	
O		7.44541528		3.00757713		0.92295853		-0.00039250		 0.00071510		 0.00029870	
O		-0.05851206		5.81488246		3.98901126		 0.00039250		-0.00071510		-0.00029870	
O		0.69417275		7.41880693		1.53302637		 0.00039250		 0.00071510		-0.00029870	
O		6.69273048		1.40365266		3.37894342		-0.00039250		-0.00071510		 0.00029870	
O		0.62950102		4.41652248		1.57575997		 0.00047848		 0.00043405		-0.00026890	
O		6.75740310		4.40593711		3.33620982		-0.00047848		-0.00043405		 0.00026890	
O		7.51008791		0.00529268		0.88022492		-0.00047848		 0.00043405		 0.00026890	
O		-0.12318468		8.81716691		4.03174486		 0.00047848		-0.00043405		-0.00026890	
O		0.00676613		2.47911103		3.00710762		-0.00009622		 0.00016532		 0.00069594	
O		7.38013887		6.34334856		1.90486216		 0.00009622		-0.00016532		-0.00069594	
O		6.62745229		6.89034172		4.36084706		 0.00009622		 0.00016532		-0.00069594	
O		0.75945094		1.93211876		0.55112273		-0.00009622		-0.00016532		 0.00069594	
O		3.13909654		7.39233907		0.62922269		-0.00065522		 0.00055986		 0.00027523	
O		4.24780668		1.43012052		4.28274710		 0.00065522		-0.00055986		-0.00027523	
O		5.00049149		2.98110928		1.82676221		 0.00065522		 0.00055986		-0.00027523	
O		2.38641174		5.84135031		3.08520758		-0.00065522		-0.00055986		 0.00027523	
O		5.06522636		8.61424965		1.95791081		-0.00038926		 0.00018892		 0.00072435	
O		2.32167687		0.20820994		2.95405898		 0.00038926		-0.00018892		-0.00072435	
O		3.07436167		4.20301985		0.49807409		 0.00038926		 0.00018892		-0.00072435	
O		4.31254155		4.61943974		4.41389570		-0.00038926		-0.00018892		 0.00072435	
O		4.69785448		6.13161016		2.20203576		 0.00011181		-0.00024419		-0.00073804	
O		2.68904874		2.69085032		2.70993403		-0.00011181		 0.00024419		 0.00073804	
O		3.44173444		1.72038037		0.25394914		-0.00011181		-0.00024419		 0.00073804	
O		3.94516879		7.10208100		4.65802065		 0.00011181		 0.00024419		-0.00073804	
