# total energy = -18511.5542005 eV

CRYSTAL
PRIMVEC
		7.02600000		0.28103972		0.00000000
		0.24912320		6.22800274		0.00000000
		-0.43439931		-0.01737513		4.23980564
PRIMECORD
   30 1
Mg		0.22905426		1.56367088		2.28101477		 0.00012964		 0.00051799		 0.00004689
Mg		6.61166400		4.92799293		1.95879016		-0.00012964		-0.00051799		-0.00004689
Mg		4.79291414		1.74622505		3.88789987		-0.00002296		-0.00006532		 0.00051835
Mg		2.04780483		4.74543876		0.35190366		 0.00002296		 0.00006532		-0.00051835
Mg		2.86848679		1.66924781		0.17807222		 0.00003385		-0.00025868		 0.00022828
Mg		3.97223077		4.82241600		4.06173202		-0.00003385		 0.00025868		-0.00022828
Si		0.00000000		0.00000000		0.00000000		0.00000000		0.00000000		0.00000000
Si		0.12456020		3.11399996		0.00000000		0.00000000		0.00000000		0.00000000
Si		2.20254473		3.20955473		2.35309097		 0.00005434		 0.00022439		-0.00049822
Si		4.63817283		3.28210908		1.88671326		-0.00005434		-0.00022439		 0.00049822
Si		4.51460902		0.19302003		1.88671326		-0.00034127		-0.00013566		 0.00024792
Si		2.32610925		6.29864378		2.35309097		 0.00034127		 0.00013566		-0.00024792
O		5.64328289		3.70783067		0.59357265		-0.00047340		-0.00018265		 0.00042619
O		1.19743467		2.78383314		3.64623159		 0.00047340		 0.00018265		-0.00042619
O		1.10277010		0.41719294		3.64623159		-0.00016431		-0.00018871		 0.00022232
O		5.73794887		6.07447087		0.59357265		 0.00016431		 0.00018871		-0.00022232
O		5.97307845		2.98107706		2.77707153		 0.00002248		 0.00002396		 0.00016893
O		0.86763911		3.51058675		1.46273270		-0.00002248		-0.00002396		-0.00016893
O		0.96280292		5.88968275		1.46273270		-0.00028516		-0.00033656		-0.00001096
O		5.87791464		0.60198106		2.77707153		 0.00028516		 0.00033656		 0.00001096
O		2.02587813		1.63554386		1.81887573		 0.00027768		-0.00050126		 0.00012062
O		4.81484084		4.85611995		2.42092780		-0.00027768		 0.00050126		-0.00012062
O		3.25060954		3.58103372		1.03027200		-0.00053759		 0.00013361		-0.00027127
O		3.59010802		2.91063009		3.20953153		 0.00053759		-0.00013361		 0.00027127
O		3.49295075		0.48171015		3.20953153		-0.00013320		 0.00002706		-0.00003206
O		3.34776681		6.00995366		1.03027200		 0.00013320		-0.00002706		 0.00003206
O		4.45105585		1.73255066		1.32705903		-0.00005538		-0.00014389		 0.00012791
O		2.38966171		4.75911315		2.91274591		 0.00005538		 0.00014389		-0.00012791
O		6.88331651		1.82984224		0.49181670		 0.00043797		-0.00035772		 0.00011591
O		-0.04259895		4.66182298		3.74798684		-0.00043797		 0.00035772		-0.00011591
