# total energy = -18499.8612118 eV

CRYSTAL
PRIMVEC
		7.02600099		-0.84311842		0.00000000
		-0.74736049		6.22800174		0.00000000
		-0.43439935		0.05212481		4.23980049
PRIMECORD
   30 1
Mg		-0.02006586		1.53698694		2.28101515		 0.00005351		-0.00045101		-0.00033371
Mg		5.86430418		3.90002118		1.95879029		-0.00005351		 0.00045101		 0.00033371
Mg		4.54379370		0.98932405		3.88790001		 0.00010390		-0.00091514		-0.00039386
Mg		1.30044391		4.44768407		0.35190402		-0.00010390		 0.00091514		 0.00039386
Mg		2.61936715		1.22025478		0.17807210		 0.00059987		 0.00056408		-0.00040379
Mg		3.22487117		4.21675263		4.06173192		-0.00059987		-0.00056408		 0.00040379
Si		0.00000000		0.00000000		0.00000000		0.00000000		0.00000000		0.00000000
Si		-0.37368025		3.11400016		0.00000000		0.00000000		0.00000000		0.00000000
Si		1.70231231		2.87715709		2.35309118		 0.00018619		-0.00047746		-0.00079182
Si		4.14192601		2.55985103		1.88671284		-0.00018619		 0.00047746		 0.00079182
Si		4.51261576		-0.52923664		1.88671284		 0.00018114		 0.00002252		 0.00004498
Si		1.33162185		5.96624618		2.35309118		-0.00018114		-0.00002252		-0.00004498
O		5.08525412		2.82722667		0.59357320		 0.00023769		-0.00015215		 0.00056749
O		0.75898420		2.60978074		3.64623224		-0.00023769		 0.00015215		-0.00056749
O		1.04298090		0.24314107		3.64623224		-0.00021357		 0.00046592		-0.00018455
O		4.80125671		5.19386705		0.59357320		 0.00021357		-0.00046592		 0.00018455
O		5.53363079		2.04296202		2.77707194		 0.00023787		-0.00044375		-0.00009490
O		0.31060682		3.39404611		1.46273280		-0.00023787		 0.00044375		 0.00009490
O		0.02511629		5.77314167		1.46273280		-0.00048403		 0.00089068		 0.00010214
O		5.81912274		-0.33613425		2.77707194		 0.00048403		-0.00089068		-0.00010214
O		1.77675823		1.32136814		1.81887629		 0.00092891		 0.00025119		-0.00025649
O		4.06748080		4.11563999		2.42092773		-0.00092891		-0.00025119		 0.00025649
O		2.69756427		3.08305787		1.03027167		 0.00049988		-0.00051321		-0.00037155
O		3.14667476		2.35395026		3.20953164		-0.00049988		 0.00051321		 0.00037155
O		3.43814485		-0.07497028		3.20953164		-0.00032258		 0.00049256		 0.00041946
O		2.40609276		5.51197769		1.03027167		 0.00032258		-0.00049256		-0.00041946
O		4.20193605		1.03034668		1.32705898		-0.00007783		-0.00019579		-0.00034061
O		1.64230227		4.40666073		2.91274575		 0.00007783		 0.00019579		 0.00034061
O		6.63419665		0.73847606		0.49181731		 0.00022852		-0.00028793		-0.00045269
O		-0.78995904		4.69853277		3.74798672		-0.00022852		 0.00028793		 0.00045269
