# total energy = -38094.8902094 eV

CRYSTAL
PRIMVEC
		5.69209984		0.00000000		0.00000000
		0.00000000		11.46000138		0.91679806
		0.00000000		0.66023805		8.25299833
PRIMECORD
   58 1
O		1.53572911		2.06398614		8.30707897		-0.00046296		-0.00063639		-0.00016016
O		4.15637074		10.05625385		0.86272084		 0.00046296		 0.00063639		 0.00016016
O		4.15637074		4.97711803		8.54012891		 0.00074791		 0.00016609		-0.00001340
O		1.53572911		7.14312197		0.62967090		-0.00074791		-0.00016609		 0.00001340
O		1.53572911		10.05625385		0.86272084		-0.00046296		 0.00063639		 0.00016016
O		4.15637074		2.06398614		8.30707897		 0.00046296		-0.00063639		-0.00016016
O		4.15637074		7.14312197		0.62967090		 0.00074791		-0.00016609		 0.00001340
O		1.53572911		4.97711803		8.54012891		-0.00074791		 0.00016609		-0.00001340
O		2.84604992		6.10854696		6.68474001		0.00000000		-0.00053101		-0.00022087
O		2.84604992		6.01169304		2.48505980		0.00000000		 0.00053101		 0.00022087
O		2.84604992		0.61920825		6.24559280		0.00000000		 0.00081311		-0.00035005
O		2.84604992		11.50103288		2.92420701		0.00000000		-0.00081311		 0.00035005
O		0.00000000		3.33826003		6.14494965		0.00000000		-0.00026293		 0.00061354
O		0.00000000		8.78197997		3.02485016		0.00000000		 0.00026293		-0.00061354
O		0.00000000		3.00939497		2.03413108		0.00000000		 0.00016648		-0.00057704
O		0.00000000		9.11084559		7.13566873		0.00000000		-0.00016648		 0.00057704
O		2.84604992		9.06951469		6.61903098		0.00000000		-0.00022633		 0.00025516
O		2.84604992		3.05072588		2.55076883		0.00000000		 0.00022633		-0.00025516
O		2.84604992		8.73813999		2.47685008		0.00000000		 0.00024458		-0.00012954
O		2.84604992		3.38210001		6.69294973		0.00000000		-0.00024458		 0.00012954
O		0.00000000		11.50842692		3.01664102		0.00000000		 0.00038236		 0.00043861
O		0.00000000		0.61181307		6.15315993		0.00000000		-0.00038236		-0.00043861
O		0.00000000		6.01908764		2.57749267		0.00000000		-0.00044475		 0.00013333
O		0.00000000		6.10115292		6.59230657		0.00000000		 0.00044475		-0.00013333
O		4.38177903		7.46386553		4.63897884		 0.00013857		-0.00057079		-0.00024306
O		1.31032081		4.65637389		4.53082211		-0.00013857		 0.00057079		 0.00024306
O		1.31032081		10.37699799		4.87202877		-0.00006698		-0.00005636		 0.00029293
O		4.38177903		1.74324201		4.29777103		 0.00006698		 0.00005636		-0.00029293
O		4.38177903		4.65637389		4.53082211		 0.00013857		 0.00057079		 0.00024306
O		1.31032081		7.46386553		4.63897884		-0.00013857		-0.00057079		-0.00024306
O		1.31032081		1.74324201		4.29777103		-0.00006698		 0.00005636		-0.00029293
O		4.38177903		10.37699799		4.87202877		 0.00006698		-0.00005636		 0.00029293
H		2.84604992		8.98553174		5.56925010		0.00000000		-0.00001510		 0.00038687
H		2.84604992		3.13470769		3.60055085		0.00000000		 0.00001510		-0.00038687
H		0.00000000		3.09337678		3.08391310		0.00000000		-0.00044165		-0.00050713
H		0.00000000		9.02686264		6.08588671		0.00000000		 0.00044165		 0.00050713
Mg		2.84604992		6.06011971		4.58489990		0.00000000		0.00000000		0.00000000
Mg		2.84604992		0.33012016		4.12649974		0.00000000		0.00000000		0.00000000
Mg		0.00000000		0.00000000		0.00000000		0.00000000		0.00000000		0.00000000
Mg		0.00000000		5.73000012		0.45840017		0.00000000		0.00000000		0.00000000
Mg		1.42302496		1.61360386		2.17913391		-0.00032534		 0.00039924		-0.00016996
Mg		4.26907488		10.50663556		6.99066704		 0.00032534		-0.00039924		 0.00016996
Mg		4.26907488		4.44651585		2.40576714		 0.00068196		-0.00036784		 0.00018843
Mg		1.42302496		7.67372358		6.76403381		-0.00068196		 0.00036784		-0.00018843
Mg		1.42302496		10.50663556		6.99066704		-0.00032534		-0.00039924		 0.00016996
Mg		4.26907488		1.61360386		2.17913391		 0.00032534		 0.00039924		-0.00016996
Mg		4.26907488		7.67372358		6.76403381		 0.00068196		 0.00036784		-0.00018843
Mg		1.42302496		4.44651585		2.40576714		-0.00068196		-0.00036784		 0.00018843
Mg		0.00000000		3.50549904		8.23543479		0.00000000		-0.00031574		 0.00007768
Mg		0.00000000		8.61474095		0.93436502		0.00000000		 0.00031574		-0.00007768
Si		2.84604992		7.18332982		1.53080772		0.00000000		-0.00008710		-0.00029998
Si		2.84604992		4.93690960		7.63899266		0.00000000		 0.00008710		 0.00029998
Si		2.84604992		10.16063786		1.76899193		0.00000000		-0.00006827		-0.00030803
Si		2.84604992		1.95960214		7.40080788		0.00000000		 0.00006827		 0.00030803
Si		0.00000000		1.78344986		5.19890671		0.00000000		-0.00013156		 0.00024710
Si		0.00000000		10.33678956		3.97089309		0.00000000		 0.00013156		-0.00024710
Si		0.00000000		4.76075790		5.43709206		0.00000000		 0.00029164		 0.00039113
Si		0.00000000		7.35948153		3.73270775		0.00000000		-0.00029164		-0.00039113
