# total energy = -38094.8902094 eV

CRYSTAL
PRIMVEC
		5.69209984		0.00000000		0.00000000
		0.00000000		11.46000138		-0.91679806
		0.00000000		-0.66023805		8.25299833
PRIMECORD
   58 1
O		1.53572911		0.75288209		8.08172874		-0.00074790		-0.00016607		-0.00001339
O		4.15637074		10.04687783		-0.74552904		 0.00074790		 0.00016607		 0.00001339
O		4.15637074		3.66601398		7.84867880		 0.00046295		 0.00063633		-0.00016016
O		1.53572911		7.13374594		-0.51247910		-0.00046295		-0.00063633		 0.00016016
O		1.53572911		10.04687783		-0.74552904		-0.00074790		 0.00016607		 0.00001339
O		4.15637074		0.75288209		8.08172874		 0.00074790		-0.00016607		-0.00001339
O		4.15637074		7.13374594		-0.51247910		 0.00046295		-0.00063633		 0.00016016
O		1.53572911		3.66601398		7.84867880		-0.00046295		 0.00063633		-0.00016016
O		2.84604992		5.11079301		5.78719263		0.00000000		-0.00081309		-0.00035011
O		2.84604992		5.68896805		1.54900707		0.00000000		 0.00081309		 0.00035011
O		2.84604992		-0.37854684		6.22633984		0.00000000		 0.00053098		-0.00022084
O		2.84604992		11.17830676		1.10985986		0.00000000		-0.00053098		 0.00022084
O		0.00000000		2.39174010		5.68655005		0.00000000		 0.00026293		 0.00061349
O		0.00000000		8.40801982		1.64965022		0.00000000		-0.00026293		-0.00061349
O		0.00000000		2.72060572		1.57573091		0.00000000		-0.00016655		-0.00057719
O		0.00000000		8.07915363		5.76046879		0.00000000		 0.00016655		 0.00057719
O		2.84604992		8.12048568		5.24383104		0.00000000		 0.00022628		 0.00025521
O		2.84604992		2.67927367		2.09236866		0.00000000		-0.00022628		-0.00025521
O		2.84604992		8.45185981		1.10165014		0.00000000		-0.00024460		-0.00012955
O		2.84604992		2.34790011		6.23454956		0.00000000		 0.00024460		 0.00012955
O		0.00000000		11.17091272		1.20229273		0.00000000		 0.00044472		 0.00013335
O		0.00000000		-0.37115280		6.13390697		0.00000000		-0.00044472		-0.00013335
O		0.00000000		5.68157287		1.64143994		0.00000000		-0.00038233		 0.00043871
O		0.00000000		5.11818705		5.69475976		0.00000000		 0.00038233		-0.00043871
O		4.38177903		6.81300181		3.49682884		 0.00006690		 0.00005634		 0.00029287
O		1.31032081		3.98675811		3.83937087		-0.00006690		-0.00005634		-0.00029287
O		1.31032081		9.72613369		3.26377890		-0.00013850		 0.00057074		-0.00024300
O		4.38177903		1.07362623		4.07242194		 0.00013850		-0.00057074		 0.00024300
O		4.38177903		3.98675811		3.83937087		 0.00006690		-0.00005634		-0.00029287
O		1.31032081		6.81300181		3.49682884		-0.00006690		 0.00005634		 0.00029287
O		1.31032081		1.07362623		4.07242194		-0.00013850		-0.00057074		 0.00024300
O		4.38177903		9.72613369		3.26377890		 0.00013850		 0.00057074		-0.00024300
H		2.84604992		8.20446806		4.19405016		0.00000000		 0.00001509		 0.00038681
H		2.84604992		2.59529186		3.14215068		0.00000000		-0.00001509		-0.00038681
H		0.00000000		2.63662277		2.62551293		0.00000000		 0.00044169		-0.00050702
H		0.00000000		8.16313658		4.71068677		0.00000000		-0.00044169		 0.00050702
Mg		2.84604992		5.39987996		3.66810014		0.00000000		0.00000000		0.00000000
Mg		2.84604992		-0.33012016		4.12649974		0.00000000		0.00000000		0.00000000
Mg		0.00000000		0.00000000		0.00000000		0.00000000		0.00000000		0.00000000
Mg		0.00000000		5.73000012		-0.45840017		0.00000000		0.00000000		0.00000000
Mg		1.42302496		1.28348370		1.94736697		-0.00068196		 0.00036784		 0.00018844
Mg		4.26907488		9.51627565		5.38883387		 0.00068196		-0.00036784		-0.00018844
Mg		4.26907488		4.11639569		1.72073374		 0.00032530		-0.00039922		-0.00016999
Mg		1.42302496		6.68336366		5.61546710		-0.00032530		 0.00039922		 0.00016999
Mg		1.42302496		9.51627565		5.38883387		-0.00068196		-0.00036784		-0.00018844
Mg		4.26907488		1.28348370		1.94736697		 0.00068196		 0.00036784		 0.00018844
Mg		4.26907488		6.68336366		5.61546710		 0.00032530		 0.00039922		 0.00016999
Mg		1.42302496		4.11639569		1.72073374		-0.00032530		-0.00039922		-0.00016999
Mg		0.00000000		2.22450108		7.77703462		0.00000000		 0.00031576		 0.00007770
Mg		0.00000000		8.57525884		-0.44083492		0.00000000		-0.00031576		-0.00007770
Si		2.84604992		7.02936194		0.39379199		0.00000000		 0.00006824		-0.00030802
Si		2.84604992		3.77039798		6.94240771		0.00000000		-0.00006824		 0.00030802
Si		2.84604992		10.00666997		0.15560778		0.00000000		 0.00008710		-0.00029994
Si		2.84604992		0.79308995		7.18059306		0.00000000		-0.00008710		 0.00029994
Si		0.00000000		0.96924222		4.97869189		0.00000000		-0.00029170		 0.00039120
Si		0.00000000		9.83051770		2.35750781		0.00000000		 0.00029170		-0.00039120
Si		0.00000000		3.94654969		4.74050711		0.00000000		 0.00013158		 0.00024721
Si		0.00000000		6.85320966		2.59569316		0.00000000		-0.00013158		-0.00024721
