# total energy = -38097.5448389 eV

CRYSTAL
PRIMVEC
		5.69209984		0.00000000		0.00000000
		0.00000000		11.46000138		0.45840188
		0.00000000		0.33011902		8.25299833
PRIMECORD
   58 1
O		1.53572911		1.73620999		8.25074084		-0.00027999		-0.00061636		 0.00009591
O		4.15637074		10.05390985		0.46065879		 0.00027999		 0.00061636		-0.00009591
O		4.15637074		4.64934187		8.36726667		 0.00040054		 0.00024673		 0.00003257
O		1.53572911		7.14077796		0.34413411		-0.00040054		-0.00024673		-0.00003257
O		1.53572911		10.05390985		0.46065879		-0.00027999		 0.00061636		-0.00009591
O		4.15637074		1.73620999		8.25074084		 0.00027999		-0.00061636		 0.00009591
O		4.15637074		7.14077796		0.34413411		 0.00040054		-0.00024673		-0.00003257
O		1.53572911		4.64934187		8.36726667		-0.00040054		 0.00024673		 0.00003257
O		2.84604992		5.85910890		6.46035402		0.00000000		-0.00044149		-0.00001760
O		2.84604992		5.93101207		2.25104676		0.00000000		 0.00044149		 0.00001760
O		2.84604992		0.36976905		6.24077956		0.00000000		 0.00058831		 0.00003844
O		2.84604992		11.42035078		2.47062008		0.00000000		-0.00058831		-0.00003844
O		0.00000000		3.10162976		6.03035003		0.00000000		-0.00005738		 0.00050440
O		0.00000000		8.68848951		2.68105018		0.00000000		 0.00005738		-0.00050440
O		0.00000000		2.93719695		1.91953089		0.00000000		-0.00010642		-0.00036116
O		0.00000000		8.85292289		6.79186875		0.00000000		 0.00010642		 0.00036116
O		2.84604992		8.83225658		6.27523100		0.00000000		-0.00011040		-0.00015755
O		2.84604992		2.95786269		2.43616921		0.00000000		 0.00011040		 0.00015755
O		2.84604992		8.66656980		2.13305010		0.00000000		 0.00002196		-0.00017811
O		2.84604992		3.12355003		6.57834954		0.00000000		-0.00002196		 0.00017811
O		0.00000000		11.42404894		2.56305409		0.00000000		 0.00004153		-0.00010627
O		0.00000000		0.36607203		6.14834669		0.00000000		-0.00004153		 0.00010627
O		0.00000000		5.93470909		2.34348020		0.00000000		 0.00009416		-0.00029555
O		0.00000000		5.85541074		6.36792001		0.00000000		-0.00009416		 0.00029555
O		4.38177903		7.30115003		4.35344091		 0.00019221		-0.00038555		 0.00004255
O		1.31032081		4.48896981		4.35795873		-0.00019221		 0.00038555		-0.00004255
O		1.31032081		10.21428191		4.46996673		-0.00028847		-0.00013063		 0.00020730
O		4.38177903		1.57583792		4.24143405		 0.00028847		 0.00013063		-0.00020730
O		4.38177903		4.48896981		4.35795873		 0.00019221		 0.00038555		-0.00004255
O		1.31032081		7.30115003		4.35344091		-0.00019221		-0.00038555		 0.00004255
O		1.31032081		1.57583792		4.24143405		-0.00028847		 0.00013063		-0.00020730
O		4.38177903		10.21428191		4.46996673		 0.00028847		-0.00013063		 0.00020730
H		2.84604992		8.79026596		5.22545011		0.00000000		-0.00017030		-0.00005859
H		2.84604992		2.99985387		3.48595066		0.00000000		 0.00017030		 0.00005859
H		0.00000000		2.97918871		2.96931291		0.00000000		-0.00022825		-0.00043468
H		0.00000000		8.81093170		5.74208673		0.00000000		 0.00022825		 0.00043468
Mg		2.84604992		5.89505963		4.35570010		0.00000000		0.00000000		0.00000000
Mg		2.84604992		0.16506008		4.12649974		0.00000000		0.00000000		0.00000000
Mg		0.00000000		0.00000000		0.00000000		0.00000000		0.00000000		0.00000000
Mg		0.00000000		5.73000012		0.22919980		0.00000000		0.00000000		0.00000000
Mg		1.42302496		1.53107411		2.12119174		-0.00034225		-0.00004463		-0.00015918
Mg		4.26907488		10.25904573		6.59020790		 0.00034225		 0.00004463		 0.00015918
Mg		4.26907488		4.36398609		2.23450779		 0.00013989		-0.00039950		-0.00037574
Mg		1.42302496		7.42613374		6.47689185		-0.00013989		 0.00039950		 0.00037574
Mg		1.42302496		10.25904573		6.59020790		-0.00034225		 0.00004463		 0.00015918
Mg		4.26907488		1.53107411		2.12119174		 0.00034225		-0.00004463		-0.00015918
Mg		4.26907488		7.42613374		6.47689185		 0.00013989		 0.00039950		 0.00037574
Mg		1.42302496		4.36398609		2.23450779		-0.00013989		-0.00039950		-0.00037574
Mg		0.00000000		3.18524898		8.12083460		0.00000000		 0.00007033		-0.00033848
Mg		0.00000000		8.60487085		0.59056504		0.00000000		-0.00007033		 0.00033848
Si		2.84604992		7.14483757		1.24655393		0.00000000		 0.00028200		-0.00031415
Si		2.84604992		4.64528170		7.46484685		0.00000000		-0.00028200		 0.00031415
Si		2.84604992		10.12214560		1.36564575		0.00000000		-0.00001197		-0.00041843
Si		2.84604992		1.66797423		7.34575389		0.00000000		 0.00001197		 0.00041843
Si		0.00000000		1.57989809		5.14385386		0.00000000		 0.00014681		 0.00024040
Si		0.00000000		10.21022174		3.56754691		0.00000000		-0.00014681		-0.00024040
Si		0.00000000		4.55720613		5.26294568		0.00000000		 0.00013046		 0.00024500
Si		0.00000000		7.23291370		3.44845396		0.00000000		-0.00013046		-0.00024500
