# total energy = -12332.316484 eV

CRYSTAL
PRIMVEC
		2.46200010		0.00000000		0.00000000
		0.00000000		8.05300044		-0.96635966
		0.00000000		-0.73295959		6.10800066
PRIMECORD
   20 1
O		0.00000000		0.40462898		1.45645598		0.00000000		-0.00031626		-0.00003760
O		0.00000000		6.91541138		3.68518404		0.00000000		 0.00031626		 0.00003760
O		1.23100005		4.43112920		0.97327616		0.00000000		-0.00031614		-0.00003796
O		1.23100005		2.88891116		4.16836411		0.00000000		 0.00031614		 0.00003796
O		0.00000000		2.60000407		2.34283905		0.00000000		-0.00010376		 0.00015860
O		0.00000000		4.72003629		2.79880122		0.00000000		 0.00010376		-0.00015860
O		0.00000000		4.44004607		5.13205619		0.00000000		 0.00018375		 0.00012134
O		0.00000000		2.87999503		0.00958309		0.00000000		-0.00018375		-0.00012134
O		1.23100005		6.62650429		1.85965897		0.00000000		-0.00010327		 0.00015899
O		1.23100005		0.69353607		3.28198105		0.00000000		 0.00010327		-0.00015899
O		1.23100005		0.41354610		5.61523627		0.00000000		 0.00018364		 0.00012118
O		1.23100005		6.90649525		-0.47359699		0.00000000		-0.00018364		-0.00012118
Si		0.00000000		0.00000000		0.00000000		0.00000000		0.00000000		0.00000000
Si		0.00000000		-0.36648004		3.05400009		0.00000000		0.00000000		0.00000000
Si		1.23100005		4.02650022		-0.48318008		0.00000000		0.00000000		0.00000000
Si		1.23100005		3.66002018		2.57082001		0.00000000		0.00000000		0.00000000
Mg		0.00000000		1.48768916		4.33651109		0.00000000		-0.00091096		 0.00069695
Mg		0.00000000		5.83235119		0.80512893		0.00000000		 0.00091096		-0.00069695
Mg		1.23100005		5.51419012		3.85333126		0.00000000		-0.00091133		 0.00069666
Mg		1.23100005		1.80585097		1.28830901		0.00000000		 0.00091133		-0.00069666
