# total energy = -12339.8091732 eV

CRYSTAL
PRIMVEC
		2.46200010		0.00000000		0.00000000
		0.00000000		8.05300044		-0.32212071
		0.00000000		-0.24431904		6.10800066
PRIMECORD
   20 1
O		0.00000000		0.52678899		1.50348511		-0.00000000		 0.00090773		-0.00009108
O		0.00000000		7.28189117		4.28239509		0.00000000		-0.00090773		 0.00009108
O		1.23100005		4.55328921		1.34242500		-0.00000000		 0.00090769		-0.00009041
O		1.23100005		3.25539120		4.44345520		0.00000000		-0.00090769		 0.00009041
O		0.00000000		2.81549407		2.57669804		0.00000000		-0.00008144		 0.00009865
O		0.00000000		4.99318609		3.20918217		0.00000000		 0.00008144		-0.00009865
O		0.00000000		4.89985610		5.54243714		0.00000000		-0.00054750		-0.00038858
O		0.00000000		2.90882406		0.24344208		-0.00000000		 0.00054750		 0.00038858
O		1.23100005		6.84199528		2.41563817		0.00000000		-0.00008157		 0.00009839
O		1.23100005		0.96668612		3.37024203		0.00000000		 0.00008157		-0.00009839
O		1.23100005		0.87335613		5.70349725		0.00000000		-0.00054772		-0.00038847
O		1.23100005		6.93532527		0.08238197		0.00000000		 0.00054772		 0.00038847
Si		0.00000000		0.00000000		0.00000000		0.00000000		0.00000000		0.00000000
Si		0.00000000		-0.12216001		3.05400009		0.00000000		0.00000000		0.00000000
Si		1.23100005		4.02650022		-0.16106011		0.00000000		0.00000000		0.00000000
Si		1.23100005		3.90434021		2.89294022		0.00000000		0.00000000		0.00000000
Mg		0.00000000		1.85416896		4.49950312		0.00000000		-0.00045900		-0.00007958
Mg		0.00000000		5.95451121		1.28637609		-0.00000000		 0.00045900		 0.00007958
Mg		1.23100005		5.88067016		4.33844326		0.00000000		-0.00045908		-0.00007951
Mg		1.23100005		1.92801099		1.44743595		0.00000000		 0.00045908		 0.00007951
