# total energy = -12325.36673 eV

CRYSTAL
PRIMVEC
		2.46200010		0.00000000		0.00000000
		0.00000000		8.05300044		-1.28848037
		0.00000000		-0.97728109		6.10800066
PRIMECORD
   20 1
O		0.00000000		0.34354897		1.43294118		0.00000000		 0.00002983		 0.00007490
O		0.00000000		6.73217136		3.38657912		0.00000000		-0.00002983		-0.00007490
O		1.23100005		4.37004919		0.78870099		0.00000000		 0.00005282		 0.00004044
O		1.23100005		2.70567114		4.03081906		0.00000000		-0.00005282		-0.00004044
O		0.00000000		2.49225906		2.22591005		0.00000000		 0.00001470		 0.00001185
O		0.00000000		4.58346127		2.59361001		0.00000000		-0.00001470		-0.00001185
O		0.00000000		4.21014105		4.92686621		0.00000000		 0.00006501		 0.00022838
O		0.00000000		2.86558002		-0.10734591		0.00000000		-0.00006501		-0.00022838
O		1.23100005		6.51875928		1.58167011		0.00000000		 0.00011941		 0.00007419
O		1.23100005		0.55696203		3.23785019		0.00000000		-0.00011941		-0.00007419
O		1.23100005		0.18364108		5.57110615		0.00000000		 0.00004137		 0.00018989
O		1.23100005		6.89208024		-0.75158610		0.00000000		-0.00004137		-0.00018989
Si		0.00000000		0.00000000		0.00000000		0.00000000		0.00000000		0.00000000
Si		0.00000000		-0.48864005		3.05400009		0.00000000		0.00000000		0.00000000
Si		1.23100005		4.02650022		-0.64423994		0.00000000		0.00000000		0.00000000
Si		1.23100005		3.53786017		2.40976015		0.00000000		0.00000000		0.00000000
Mg		0.00000000		1.30444914		4.25501420		0.00000000		-0.00003751		 0.00005343
Mg		0.00000000		5.77127119		0.56450511		0.00000000		 0.00003751		-0.00005343
Mg		1.23100005		5.33095010		3.61077402		0.00000000		-0.00013666		-0.00002206
Mg		1.23100005		1.74477097		1.20874505		0.00000000		 0.00013666		 0.00002206
