# total energy = -12337.1117158 eV

CRYSTAL
PRIMVEC
		2.46200010		0.00000000		0.00000000
		0.00000000		8.05300044		-0.64423895
		0.00000000		-0.48864055		6.10800066
PRIMECORD
   20 1
O		0.00000000		0.46570898		1.47997006		0.00000000		-0.00025610		-0.00048820
O		0.00000000		7.09865140		3.98378919		0.00000000		 0.00025610		 0.00048820
O		1.23100005		4.49220920		1.15785009		0.00000000		-0.00025610		-0.00048817
O		1.23100005		3.07215118		4.30590916		-0.00000000		 0.00025610		 0.00048817
O		0.00000000		2.70774907		2.45976903		-0.00000000		-0.00045760		 0.00020964
O		0.00000000		4.85661131		3.00399120		0.00000000		 0.00045760		-0.00020964
O		0.00000000		4.66995108		5.33724716		0.00000000		-0.00004791		-0.00033883
O		0.00000000		2.89440905		0.12651308		0.00000000		 0.00004791		 0.00033883
O		1.23100005		6.73424929		2.13764907		0.00000000		-0.00045761		 0.00020965
O		1.23100005		0.83011110		3.32611117		0.00000000		 0.00045761		-0.00020965
O		1.23100005		0.64345111		5.65936713		0.00000000		-0.00004790		-0.00033885
O		1.23100005		6.92091026		-0.19560689		-0.00000000		 0.00004790		 0.00033885
Si		0.00000000		0.00000000		0.00000000		0.00000000		0.00000000		0.00000000
Si		0.00000000		-0.24432003		3.05400009		0.00000000		0.00000000		0.00000000
Si		1.23100005		4.02650022		-0.32211997		0.00000000		0.00000000		0.00000000
Si		1.23100005		3.78218019		2.73188012		0.00000000		0.00000000		0.00000000
Mg		0.00000000		1.67092918		4.41800723		0.00000000		-0.00033681		 0.00071040
Mg		0.00000000		5.89343120		1.04575301		0.00000000		 0.00033681		-0.00071040
Mg		1.23100005		5.69743014		4.09588726		0.00000000		-0.00033684		 0.00071040
Mg		1.23100005		1.86693098		1.36787297		0.00000000		 0.00033684		-0.00071040
