# total energy = -12332.3167196 eV

CRYSTAL
PRIMVEC
		2.46200010		0.00000000		0.00000000
		0.00000000		8.05300044		0.96635966
		0.00000000		0.73295959		6.10800066
PRIMECORD
   20 1
O		0.00000000		0.77110902		1.59754410		0.00000000		-0.00031321		 0.00003970
O		0.00000000		8.01485125		5.47681622		0.00000000		 0.00031321		-0.00003970
O		1.23100005		4.79760924		2.08072418		0.00000000		-0.00031273		 0.00004124
O		1.23100005		3.98835128		4.99363615		0.00000000		 0.00031273		-0.00004124
O		0.00000000		3.24647507		3.04441724		0.00000000		-0.00018450		 0.00012502
O		0.00000000		5.53948619		4.02994308		-0.00000000		 0.00018450		-0.00012502
O		0.00000000		5.81947616		6.36319928		0.00000000		 0.00010353		 0.00015625
O		0.00000000		2.96648411		0.71116104		0.00000000		-0.00010353		-0.00015625
O		1.23100005		7.27297529		3.52759707		0.00000000		-0.00018380		 0.00012427
O		1.23100005		1.51298597		3.54676325		0.00000000		 0.00018380		-0.00012427
O		1.23100005		1.79297619		5.88001921		0.00000000		 0.00010087		 0.00015821
O		1.23100005		6.99298432		1.19434111		0.00000000		-0.00010087		-0.00015821
Si		0.00000000		0.00000000		0.00000000		0.00000000		0.00000000		0.00000000
Si		0.00000000		0.36648004		3.05400009		0.00000000		0.00000000		0.00000000
Si		1.23100005		4.02650022		0.48318008		0.00000000		0.00000000		0.00000000
Si		1.23100005		4.39298026		3.53718016		0.00000000		0.00000000		0.00000000
Mg		0.00000000		2.58712904		4.82548917		-0.00000000		-0.00091984		-0.00069006
Mg		0.00000000		6.19883123		2.24887115		0.00000000		 0.00091984		 0.00069006
Mg		1.23100005		6.61362926		5.30866925		0.00000000		-0.00092239		-0.00068819
Mg		1.23100005		2.17233101		1.76569108		0.00000000		 0.00092239		 0.00068819
