# total energy = -18387.145908 eV	

CRYSTAL	
PRIMVEC	
		11.10980369		-1.77757354		0.00000000	
		-1.02230927		6.38940202		0.00000000	
		0.00000000		0.00000000		4.82809725	
PRIMCOORD
   28 1	
Mg		0.00000000		0.00000000		0.00000000		0.00000000		0.00000000		0.00000000	
Mg		5.55489959		-0.88878452		2.41404975		-0.00000000		-0.00000000		0.00000000	
Mg		-0.51115239		3.19469989		0.00000000		0.00000000		0.00000000		0.00000000	
Mg		5.04374833		2.30591537		2.41404975		0.00000000		0.00000000		0.00000000	
Ca		2.82006055		1.10524793		4.71922705		-0.00021930		 0.00013101		-0.00021432	
Ca		7.26743611		3.50658393		0.10887358		 0.00021930		-0.00013101		 0.00021432	
Ca		1.71253539		4.39536732		2.30517729		 0.00021930		-0.00013101		-0.00021432	
Ca		8.37496014		0.21646454		2.52292446		-0.00021930		 0.00013101		 0.00021432	
Si		0.65053897		1.45237156		1.98425299		-0.00017536		 0.00022721		 0.00070917	
Si		9.43695657		3.15946030		2.84384764		 0.00017536		-0.00022721		-0.00070917	
Si		3.88205698		4.04824369		4.39830274		 0.00017536		-0.00022721		 0.00070917	
Si		6.20543969		0.56358704		0.42979789		-0.00017536		 0.00022721		-0.00070917	
O		0.60732234		1.45928649		3.60031352		-0.00038924		-0.00002502		 0.00085068	
O		9.48017319		3.15254537		1.22778598		 0.00038924		 0.00002502		-0.00085068	
O		3.92527360		4.04132989		1.18626377		 0.00038924		 0.00002502		 0.00085068	
O		6.16222194		0.57050197		3.64183573		-0.00038924		-0.00002502		-0.00085068	
O		4.73283526		0.79920434		1.18771291		 0.00059595		 0.00018745		 0.00032170	
O		5.35466028		3.81262752		3.64038771		-0.00059595		-0.00018745		-0.00032170	
O		-0.20023931		4.70141204		3.60176266		-0.00059595		-0.00018745		 0.00032170	
O		10.28773598		-0.08958018		1.22633684		 0.00059595		 0.00018745		-0.00032170	
O		1.59230945		0.02975130		1.31951962		-0.00026827		 0.00019068		 0.00024654	
O		8.49518721		4.58208056		3.50857988		 0.00026827		-0.00019068		-0.00024654	
O		2.94028537		5.47086508		3.73356937		 0.00026827		-0.00019068		 0.00024654	
O		7.14721017		-0.85903322		1.09453013		-0.00026827		 0.00019068		-0.00024654	
O		8.91289916		1.97137160		3.50857988		-0.00008128		-0.00001384		 0.00030443	
O		1.17459637		2.64046026		1.31951962		 0.00008128		 0.00001384		-0.00030443	
O		6.72949709		1.75167574		1.09453013		 0.00008128		 0.00001384		 0.00030443	
O		3.35799957		2.86015612		3.73356937		-0.00008128		-0.00001384		-0.00030443	
