# total energy = -10313.0733871 eV	

CRYSTAL	
PRIMVEC	
		4.98000197		-0.79680253		0.00000000	
		-1.41599876		8.84999983		0.00000000	
		0.00000000		0.00000000		2.74999784	
PRIMCOORD
   14 1	
Si		0.00000000		0.00000000		0.00000000		0.00000000		0.00000000		0.00000000	
Si		1.78200009		4.02660016		0.00000000		0.00000000		0.00000000		0.00000000	
Mg		-0.06352391		2.88090684		1.37499993		 0.00025590		 0.00011435		-0.00000000	
Mg		3.62752409		5.17229298		1.37499993		-0.00025590		-0.00011435		-0.00000000	
Mg		0.90275204		7.03802313		1.37499993		 0.00046629		 0.00030320		0.00000000	
Mg		2.66124814		1.01517720		1.37499993		-0.00046629		-0.00030320		0.00000000	
O		1.01423510		0.22405195		1.37499993		-0.00023817		-0.00005507		0.00000000	
O		2.54976509		7.82914837		1.37499993		 0.00023817		 0.00005507		0.00000000	
O		0.64089117		4.59550822		1.37499993		 0.00072945		 0.00028007		0.00000000	
O		2.92310902		3.45769311		1.37499993		-0.00072945		-0.00028007		0.00000000	
O		1.51753081		2.41925098		0.00000000		-0.00024360		-0.00047887		0.00000000	
O		2.04646888		5.63395035		0.00000000		 0.00024360		 0.00047887		0.00000000	
O		-0.60976921		7.07133893		0.00000000		-0.00073590		-0.00016925		0.00000000	
O		4.17376889		0.98186088		0.00000000		 0.00073590		 0.00016925		0.00000000	
