# total energy = -24716.1240649 eV

CRYSTAL
PRIMVEC
		9.68100001		0.00000000		0.00000000
		0.00000000		8.73899998		0.00000000
		1.61441324		0.00000000		5.06877798
PRIMECORD
   40 1
Si		2.35750744		3.58299038		1.01882360		 0.00030116		 0.00014645		 0.00029274
Si		8.93790581		5.15600960		4.04995245		-0.00030116		-0.00014645		-0.00029274
Si		3.29020015		7.95249037		1.51556442		-0.00030116		 0.00014645		-0.00029274
Si		8.00521310		0.78650961		3.55321066		 0.00030116		-0.00014645		 0.00029274
Si		8.13069919		3.58299038		1.51556442		-0.00019694		-0.00004879		-0.00028498
Si		3.16471309		5.15600960		3.55321066		 0.00019694		 0.00004879		 0.00028498
Si		7.19800744		7.95249037		1.01882360		 0.00019694		-0.00004879		 0.00028498
Si		4.09740580		0.78650961		4.04995245		-0.00019694		 0.00004879		-0.00028498
O		4.03384133		3.67037980		0.50687780		-0.00018706		 0.00025255		 0.00022429
O		7.26157192		5.06862115		4.56189825		 0.00018706		-0.00025255		-0.00022429
O		1.61386530		8.03987979		2.02751023		 0.00018706		 0.00025255		-0.00022429
O		9.68154698		0.69912019		3.04126485		-0.00018706		-0.00025255		 0.00022429
O		8.60171275		2.18475000		0.80593454		 0.00017599		-0.00048338		 0.00090919
O		2.69369856		6.55424999		4.26283957		-0.00017599		 0.00048338		-0.00090919
O		6.72699291		6.55424999		1.72845252		-0.00017599		-0.00048338		-0.00090919
O		4.56842034		2.18475000		3.34032256		 0.00017599		 0.00048338		 0.00090919
O		2.98584210		4.28210960		4.81533715		 0.00080769		 0.00002941		 0.00000636
O		8.30957115		4.45689038		0.25343890		-0.00080769		-0.00002941		-0.00000636
O		4.27627680		8.65160959		2.78782692		-0.00080769		 0.00002941		-0.00000636
O		7.01913548		0.08739039		2.28094912		 0.00080769		-0.00002941		 0.00000636
O		9.11677680		4.28210960		2.78782692		-0.00065345		 0.00023654		-0.00005246
O		2.17863644		4.45689038		2.28094912		 0.00065345		-0.00023654		 0.00005246
O		7.82634210		8.65160959		4.81533715		 0.00065345		 0.00023654		 0.00005246
O		3.46907115		0.08739039		0.25343890		-0.00065345		-0.00023654		-0.00005246
O		1.88649291		2.18475000		1.72845155		 0.00043036		 0.00001363		 0.00030025
O		9.40892034		6.55424999		3.34032256		-0.00043036		-0.00001363		-0.00030025
O		3.76121275		6.55424999		0.80593454		-0.00043036		 0.00001363		-0.00030025
O		7.53419856		2.18475000		4.26283957		 0.00043036		-0.00001363		 0.00030025
O		6.45436530		3.67037980		2.02751023		 0.00035812		-0.00005837		-0.00001944
O		4.84104795		5.06862115		3.04126485		-0.00035812		 0.00005837		 0.00001944
O		8.87434133		8.03987979		0.50687780		-0.00035812		-0.00005837		 0.00001944
O		2.42107095		0.69912019		4.56189825		 0.00035812		 0.00005837		-0.00001944
Mg		0.40360283		0.79524865		1.26719353		 0.00002157		 0.00089993		 0.00016256
Mg		1.21081042		7.94375133		3.80158155		-0.00002157		-0.00089993		-0.00016256
Mg		5.24410283		5.16474864		1.26719353		-0.00002157		 0.00089993		-0.00016256
Mg		6.05131042		3.57425134		3.80158155		 0.00002157		-0.00089993		 0.00016256
Mg		0.32288265		6.02990960		1.01375463		 0.00020499		-0.00074287		 0.00073677
Mg		1.29152963		2.70909038		4.05502045		-0.00020499		 0.00074287		-0.00073677
Mg		5.32482398		1.66040961		1.52063339		-0.00020499		-0.00074287		-0.00073677
Mg		5.97058927		7.07859037		3.54814265		 0.00020499		 0.00074287		 0.00073677
