# total energy = -24711.8382694 eV

CRYSTAL
PRIMVEC
		9.68100001		0.00000000		0.00000000
		0.00000000		8.73899998		0.00000000
		1.61441324		0.00000000		4.45063645
PRIMECORD
   40 1
Si		2.35750744		3.58299038		0.89457668		 0.00008001		 0.00022842		-0.00009729
Si		8.93790581		5.15600960		3.55605493		-0.00008001		-0.00022842		 0.00009729
Si		3.29020015		7.95249037		1.33073864		-0.00008001		 0.00022842		 0.00009729
Si		8.00521310		0.78650961		3.11989297		 0.00008001		-0.00022842		-0.00009729
Si		8.13069919		3.58299038		1.33073864		 0.00005276		 0.00021554		 0.00005002
Si		3.16471309		5.15600960		3.11989297		-0.00005276		-0.00021554		-0.00005002
Si		7.19800744		7.95249037		0.89457668		-0.00005276		 0.00021554		-0.00005002
Si		4.09740580		0.78650961		3.55605493		 0.00005276		-0.00021554		 0.00005002
O		4.03384133		3.67037980		0.44506268		-0.00034443		 0.00031456		 0.00012838
O		7.26157192		5.06862115		4.00556893		 0.00034443		-0.00031456		-0.00012838
O		1.61386530		8.03987979		1.78025264		 0.00034443		 0.00031456		-0.00012838
O		9.68154698		0.69912019		2.67037897		-0.00034443		-0.00031456		 0.00012838
O		8.60171275		2.18475000		0.70765012		 0.00001894		 0.00011373		-0.00025199
O		2.69369856		6.55424999		3.74298246		-0.00001894		-0.00011373		 0.00025199
O		6.72699291		6.55424999		1.51766617		-0.00001894		 0.00011373		 0.00025199
O		4.56842034		2.18475000		2.93296641		 0.00001894		-0.00011373		-0.00025199
O		2.98584210		4.28210960		4.22810027		 0.00018927		 0.00031554		-0.00003807
O		8.30957115		4.45689038		0.22253231		-0.00018927		-0.00031554		 0.00003807
O		4.27627680		8.65160959		2.44784763		-0.00018927		 0.00031554		 0.00003807
O		7.01913548		0.08739039		2.00278398		 0.00018927		-0.00031554		-0.00003807
O		9.11677680		4.28210960		2.44784763		-0.00029977		-0.00003934		 0.00002146
O		2.17863644		4.45689038		2.00278398		 0.00029977		 0.00003934		-0.00002146
O		7.82634210		8.65160959		4.22810027		 0.00029977		-0.00003934		-0.00002146
O		3.46907115		0.08739039		0.22253231		-0.00029977		 0.00003934		 0.00002146
O		1.88649291		2.18475000		1.51766520		-0.00008884		 0.00018616		 0.00015877
O		9.40892034		6.55424999		2.93296738		 0.00008884		-0.00018616		-0.00015877
O		3.76121275		6.55424999		0.70765109		 0.00008884		 0.00018616		-0.00015877
O		7.53419856		2.18475000		3.74298052		-0.00008884		-0.00018616		 0.00015877
O		6.45436530		3.67037980		1.78025264		 0.00018630		 0.00008504		-0.00036909
O		4.84104795		5.06862115		2.67037897		-0.00018630		-0.00008504		 0.00036909
O		8.87434133		8.03987979		0.44506268		-0.00018630		 0.00008504		 0.00036909
O		2.42107095		0.69912019		4.00556893		 0.00018630		-0.00008504		-0.00036909
Mg		0.40360283		0.79524865		1.11265766		 0.00013681		 0.00040454		-0.00009743
Mg		1.21081042		7.94375133		3.33797395		-0.00013681		-0.00040454		 0.00009743
Mg		5.24410283		5.16474864		1.11265766		-0.00013681		 0.00040454		 0.00009743
Mg		6.05131042		3.57425134		3.33797395		 0.00013681		-0.00040454		-0.00009743
Mg		0.32288265		6.02990960		0.89012632		-0.00020906		-0.00011310		 0.00006939
Mg		1.29152963		2.70909038		3.56050626		 0.00020906		 0.00011310		-0.00006939
Mg		5.32482398		1.66040961		1.33518997		 0.00020906		-0.00011310		-0.00006939
Mg		5.97058927		7.07859037		3.11544164		-0.00020906		 0.00011310		 0.00006939
