# total energy = -24713.5154415 eV

CRYSTAL
PRIMVEC
		9.68100001		0.00000000		0.00000000
		0.00000000		8.73899998		0.00000000
		1.61441324		0.00000000		4.57426282
PRIMECORD
   40 1
Si		2.35750744		3.58299038		0.91942587		 0.00007515		 0.00006772		-0.00015916
Si		8.93790581		5.15600960		3.65483405		-0.00007515		-0.00006772		 0.00015916
Si		3.29020015		7.95249037		1.36770361		-0.00007515		 0.00006772		 0.00015916
Si		8.00521310		0.78650961		3.20655728		 0.00007515		-0.00006772		-0.00015916
Si		8.13069919		3.58299038		1.36770361		-0.00016732		 0.00024426		 0.00012984
Si		3.16471309		5.15600960		3.20655728		 0.00016732		-0.00024426		-0.00012984
Si		7.19800744		7.95249037		0.91942587		 0.00016732		 0.00024426		-0.00012984
Si		4.09740580		0.78650961		3.65483405		-0.00016732		-0.00024426		 0.00012984
O		4.03384133		3.67037980		0.45742628		-0.00062008		 0.00056368		 0.00020110
O		7.26157192		5.06862115		4.11683460		 0.00062008		-0.00056368		-0.00020110
O		1.61386530		8.03987979		1.82970416		 0.00062008		 0.00056368		-0.00020110
O		9.68154698		0.69912019		2.74455672		-0.00062008		-0.00056368		 0.00020110
O		8.60171275		2.18475000		0.72730739		-0.00014847		 0.00009803		-0.00021062
O		2.69369856		6.55424999		3.84695253		 0.00014847		-0.00009803		 0.00021062
O		6.72699291		6.55424999		1.55982305		 0.00014847		 0.00009803		 0.00021062
O		4.56842034		2.18475000		3.01443783		-0.00014847		-0.00009803		-0.00021062
O		2.98584210		4.28210960		4.34554823		 0.00035448		 0.00025024		-0.00010368
O		8.30957115		4.45689038		0.22871266		-0.00035448		-0.00025024		 0.00010368
O		4.27627680		8.65160959		2.51584310		-0.00035448		 0.00025024		 0.00010368
O		7.01913548		0.08739039		2.05841682		 0.00035448		-0.00025024		-0.00010368
O		9.11677680		4.28210960		2.51584310		-0.00055575		-0.00009318		 0.00004746
O		2.17863644		4.45689038		2.05841682		 0.00055575		 0.00009318		-0.00004746
O		7.82634210		8.65160959		4.34554823		 0.00055575		-0.00009318		-0.00004746
O		3.46907115		0.08739039		0.22871266		-0.00055575		 0.00009318		 0.00004746
O		1.88649291		2.18475000		1.55982305		 0.00009594		 0.00040288		 0.00041342
O		9.40892034		6.55424999		3.01443783		-0.00009594		-0.00040288		-0.00041342
O		3.76121275		6.55424999		0.72730836		-0.00009594		 0.00040288		-0.00041342
O		7.53419856		2.18475000		3.84695253		 0.00009594		-0.00040288		 0.00041342
O		6.45436530		3.67037980		1.82970416		 0.00024488		-0.00001608		-0.00057097
O		4.84104795		5.06862115		2.74455672		-0.00024488		 0.00001608		 0.00057097
O		8.87434133		8.03987979		0.45742628		-0.00024488		-0.00001608		 0.00057097
O		2.42107095		0.69912019		4.11683460		 0.00024488		 0.00001608		-0.00057097
Mg		0.40360283		0.79524865		1.14356522		 0.00023321		 0.00030369		-0.00010035
Mg		1.21081042		7.94375133		3.43069566		-0.00023321		-0.00030369		 0.00010035
Mg		5.24410283		5.16474864		1.14356522		-0.00023321		 0.00030369		 0.00010035
Mg		6.05131042		3.57425134		3.43069566		 0.00023321		-0.00030369		-0.00010035
Mg		0.32288265		6.02990960		0.91485160		-0.00041669		-0.00016349		 0.00037886
Mg		1.29152963		2.70909038		3.65940929		 0.00041669		 0.00016349		-0.00037886
Mg		5.32482398		1.66040961		1.37227788		 0.00041669		-0.00016349		-0.00037886
Mg		5.97058927		7.07859037		3.20198204		-0.00041669		 0.00016349		 0.00037886
