# total energy = -49443.4589932 eV

CRYSTAL
PRIMVEC
		5.08939832		-0.40715084		0.00000000
		-1.11744003		13.96799784		0.00000000
		0.00000000		0.00000000		8.69559735
PRIMECORD
   70 1
Si		2.54469967		-0.20357593		0.00000000		0.00000000		0.00000000		0.00000000
Si		-0.55872002		6.98399943		4.34779970		0.00000000		0.00000000		0.00000000
Si		2.05276067		5.06135191		0.00000000		 0.00012245		 0.00010584		-0.00000000
Si		1.91919916		8.49949560		0.00000000		-0.00012245		-0.00010584		-0.00000000
Si		-0.90825808		12.23753553		4.34779970		 0.00029490		-0.00048308		0.00000000
Si		4.88021689		1.32331300		4.34779970		-0.00029490		 0.00048308		0.00000000
Mg		0.66830790		2.35461187		0.00000000		-0.00000694		-0.00029728		-0.00000000
Mg		3.30365192		11.20623564		0.00000000		 0.00000694		 0.00029728		-0.00000000
Mg		0.92989791		9.27298775		4.34779970		-0.00007766		 0.00027331		-0.00000000
Mg		3.04206191		4.28786078		4.34779970		 0.00007766		-0.00027331		-0.00000000
Mg		0.44425623		4.45363288		2.81563509		 0.00034452		-0.00006367		 0.00025566
Mg		3.52770360		9.10721463		5.87996482		-0.00034452		 0.00006367		-0.00025566
Mg		3.52770360		9.10721463		2.81563509		-0.00034452		 0.00006367		 0.00025566
Mg		0.44425623		4.45363288		5.87996482		 0.00034452		-0.00006367		-0.00025566
Mg		0.81882990		11.36296918		1.53216512		-0.00021121		 0.00037882		 0.00031771
Mg		3.15312992		2.19787781		7.16343478		 0.00021121		-0.00037882		-0.00031771
Mg		3.15312992		2.19787781		1.53216512		 0.00021121		-0.00037882		 0.00031771
Mg		0.81882990		11.36296918		7.16343478		-0.00021121		 0.00037882		-0.00031771
Mg		1.98597966		6.78042350		2.79363480		0.00000000		0.00000000		 0.00012431
Mg		1.98597966		6.78042350		5.90196358		0.00000000		0.00000000		-0.00012431
Mg		0.00000000		0.00000000		1.55416490		0.00000000		0.00000000		 0.00017025
Mg		0.00000000		0.00000000		7.14143450		0.00000000		0.00000000		-0.00017025
Mg		2.54469967		-0.20357593		2.97293893		0.00000000		0.00000000		 0.00062560
Mg		2.54469967		-0.20357593		5.72266046		0.00000000		0.00000000		-0.00062560
Mg		-0.55872002		6.98399943		1.37486076		0.00000000		0.00000000		-0.00056601
Mg		-0.55872002		6.98399943		7.32073761		0.00000000		0.00000000		 0.00056601
O		1.22904618		5.63603784		1.35755717		 0.00005749		-0.00013599		 0.00024531
O		2.74291364		7.92480967		7.33804273		-0.00005749		 0.00013599		-0.00024531
O		2.74291364		7.92480967		1.35755717		-0.00005749		 0.00013599		 0.00024531
O		1.22904618		5.63603784		7.33804273		 0.00005749		-0.00013599		-0.00024531
O		-0.16647412		12.68698115		2.99024304		-0.00023229		 0.00023201		 0.00012958
O		4.13843293		0.87386585		5.70535687		 0.00023229		-0.00023201		-0.00012958
O		4.13843293		0.87386585		2.99024304		 0.00023229		-0.00023201		 0.00012958
O		-0.16647412		12.68698115		5.70535687		-0.00023229		 0.00023201		-0.00012958
O		2.21985768		3.42016206		0.00000000		 0.00052413		 0.00001022		0.00000000
O		1.75210112		10.14068545		0.00000000		-0.00052413		-0.00001022		0.00000000
O		-0.81322593		10.60211150		4.34779970		-0.00074893		-0.00029982		0.00000000
O		4.78518575		2.95873703		4.34779970		 0.00074893		 0.00029982		0.00000000
O		3.56462262		5.46751175		0.00000000		 0.00000043		 0.00014548		-0.00000000
O		0.40733720		8.09333576		0.00000000		-0.00000043		-0.00014548		-0.00000000
O		2.58439873		12.48523253		4.34779970		 0.00017588		-0.00056762		0.00000000
O		1.38756109		1.07561600		4.34779970		-0.00017588		 0.00056762		0.00000000
O		1.73221100		0.87553285		1.25773182		-0.00064952		-0.00011503		-0.00049920
O		2.23974882		12.68531517		7.43786757		 0.00064952		 0.00011503		 0.00049920
O		2.23974882		12.68531517		1.25773182		 0.00064952		 0.00011503		-0.00049920
O		1.73221100		0.87553285		7.43786757		-0.00064952		-0.00011503		 0.00049920
O		0.09046617		7.94617482		3.09006788		 0.00023908		-0.00003717		 0.00005407
O		3.88149264		5.61467371		5.60553050		-0.00023908		 0.00003717		-0.00005407
O		3.88149264		5.61467371		3.09006788		-0.00023908		 0.00003717		 0.00005407
O		0.09046617		7.94617482		5.60553050		 0.00023908		-0.00003717		-0.00005407
O		4.71916293		3.11779365		1.38433891		 0.00006217		 0.00010598		-0.00003220
O		-0.74720311		10.44305437		7.31125946		-0.00006217		-0.00010598		 0.00003220
O		-0.74720311		10.44305437		1.38433891		-0.00006217		-0.00010598		-0.00003220
O		4.71916293		3.11779365		7.31125946		 0.00006217		 0.00010598		 0.00003220
O		1.79336302		10.29115946		2.96345977		-0.00020541		 0.00037020		 0.00014778
O		2.17859680		3.26968805		5.73213861		 0.00020541		-0.00037020		-0.00014778
O		2.17859680		3.26968805		2.96345977		 0.00020541		-0.00037020		 0.00014778
O		1.79336302		10.29115946		5.73213861		-0.00020541		 0.00037020		-0.00014778
O		-0.03303413		12.78192345		0.00000000		-0.00008175		 0.00002192		0.00000000
O		4.00499395		0.77892508		0.00000000		 0.00008175		-0.00002192		0.00000000
O		1.07859770		5.75369062		4.34779970		 0.00035218		 0.00023857		-0.00000000
O		2.89336110		7.80715740		4.34779970		-0.00035218		-0.00023857		-0.00000000
H		4.35988786		3.85087502		0.94347284		-0.00026436		 0.00029323		 0.00016488
H		-0.38792804		9.70997249		7.75212655		 0.00026436		-0.00029323		-0.00016488
H		-0.38792804		9.70997249		0.94347284		 0.00026436		-0.00029323		 0.00016488
H		4.35988786		3.85087502		7.75212655		-0.00026436		 0.00029323		-0.00016488
H		2.03921688		10.97583150		3.40432686		-0.00024422		 0.00026889		-0.00010870
H		1.93274192		2.58501703		5.29127152		 0.00024422		-0.00026889		 0.00010870
H		1.93274192		2.58501703		3.40432686		 0.00024422		-0.00026889		-0.00010870
H		2.03921688		10.97583150		5.29127152		-0.00024422		 0.00026889		 0.00010870
