# total energy = -24715.2109979 eV

CRYSTAL
PRIMVEC
		9.53870007		0.38154762		0.00000000
		0.34640759		8.66010381		0.00000000
		-1.68715111		-0.06748299		4.98419491
PRIMECORD
   40 1
Mg		-0.10857038		7.81359085		1.24604777		-0.00060141		 0.00040283		-0.00004946
Mg		-1.23217887		0.77902329		3.73814332		 0.00060141		-0.00040283		 0.00004946
Mg		4.48757776		3.67431466		1.24604777		-0.00059920		 0.00039604		-0.00005017
Mg		3.71037305		5.29984709		3.73814332		 0.00059920		-0.00039604		 0.00005017
Mg		-0.32285489		2.45645338		1.24604777		 0.00004715		-0.00014835		-0.00039254
Mg		-1.01789341		6.13616076		3.73814332		-0.00004715		 0.00014835		 0.00039254
Mg		4.61969703		6.97727718		1.24604777		 0.00004614		-0.00013950		-0.00039160
Mg		3.57825474		1.99688458		3.73814332		-0.00004614		 0.00013950		 0.00039160
Si		2.40482302		0.89147426		1.22461627		-0.00015577		-0.00029283		 0.00009788
Si		5.79312780		8.08268750		3.75957482		 0.00015577		 0.00029283		-0.00009788
Si		6.35402514		1.04944307		1.26748023		-0.00024067		-0.00040651		-0.00032350
Si		1.84392663		7.92471965		3.71671086		 0.00024067		 0.00040651		 0.00032350
Si		7.34737494		5.41229806		1.22461627		-0.00009865		-0.00025519		 0.00012437
Si		0.85057588		3.56186274		3.75957482		 0.00009865		 0.00025519		-0.00012437
Si		1.75787699		5.18871830		1.26748023		-0.00028872		-0.00034478		-0.00035764
Si		6.44007478		3.78544251		3.71671086		 0.00028872		 0.00034478		 0.00035764
O		0.87372763		0.75085780		0.68781768		-0.00011045		 0.00000803		 0.00036972
O		7.32422414		8.22330395		4.29637246		 0.00011045		-0.00000803		-0.00036972
O		7.87875981		1.03105875		1.80427692		 0.00039471		 0.00008366		-0.00026416
O		0.31919196		7.94310205		3.17991418		-0.00039471		-0.00008366		 0.00026416
O		5.81627955		5.27168161		0.68781768		-0.00014437		 0.00000535		 0.00035588
O		2.38167126		3.70248015		4.29637246		 0.00014437		-0.00000535		-0.00035588
O		3.28261166		5.17033589		1.80427692		 0.00042240		 0.00007928		-0.00025417
O		4.91534011		3.80382587		3.17991418		-0.00042240		-0.00007928		 0.00025417
O		3.02119407		2.34898464		1.58447368		-0.00037214		-0.00004459		-0.00049661
O		5.17675770		6.62517712		3.39971646		 0.00037214		 0.00004459		 0.00049661
O		5.85246586		2.46223559		0.90762091		 0.00002919		-0.00069716		-0.00011553
O		2.34548496		6.51192617		4.07657018		-0.00002919		 0.00069716		 0.00011553
O		7.96374599		6.86980844		1.58447368		-0.00039429		-0.00008371		-0.00050837
O		0.23420578		2.10435331		3.39971646		 0.00039429		 0.00008371		 0.00050837
O		1.25631867		6.60151082		0.90762091		 0.00005539		-0.00075483		-0.00010046
O		6.94163310		2.37264999		4.07657018		-0.00005539		 0.00075483		 0.00010046
O		3.33828393		0.18973231		0.12859190		 0.00010836		 0.00082824		-0.00032835
O		4.85966688		8.78442945		4.85559919		-0.00010836		-0.00082824		 0.00032835
O		5.36134167		0.27065366		2.36350365		-0.00007137		 0.00048533		 0.00015271
O		2.83660914		8.70350810		2.62068744		 0.00007137		-0.00048533		-0.00015271
O		8.28083681		4.71055611		0.12859190		 0.00010332		 0.00082924		-0.00032890
O		-0.08288503		4.26360565		4.85559919		-0.00010332		-0.00082924		 0.00032890
O		0.76519543		4.40992985		2.36350365		-0.00007114		 0.00047860		 0.00016271
O		7.43275634		4.56423191		2.62068744		 0.00007114		-0.00047860		-0.00016271
