# total energy = -24710.9149336 eV

CRYSTAL
PRIMVEC
		9.53870161		-1.14464189		0.00000000
		-1.03921321		8.66010045		0.00000000
		-1.68715670		0.20246073		4.98419032
PRIMECORD
   40 1
Mg		-1.36144414		7.88107724		1.24604806		-0.00027276		 0.00013145		 0.00031266
Mg		-1.36492096		0.98148106		3.73814322		 0.00027276		-0.00013145		-0.00031266
Mg		3.92751231		2.97870510		1.24604806		-0.00027721		 0.00012515		 0.00030891
Mg		2.88482324		4.73920938		3.73814322		 0.00027721		-0.00012515		-0.00030891
Mg		-0.71858666		2.52393896		1.24604806		-0.00029947		 0.00007942		-0.00022219
Mg		-2.00777748		6.33861933		3.73814322		 0.00029947		-0.00007942		 0.00022219
Mg		3.53115658		6.28166729		1.24604806		-0.00029471		 0.00009233		-0.00022283
Mg		3.28117897		1.43624720		3.73814322		 0.00029471		-0.00009233		 0.00022283
Si		2.27737381		0.51180081		1.22461647		 0.00033958		-0.00005146		 0.00005838
Si		4.53496077		7.20611368		3.75957481		-0.00033958		 0.00005146		-0.00005838
Si		6.22657614		0.03789630		1.26747965		-0.00019294		 0.00009295		 0.00022368
Si		0.58576036		7.68001819		3.71671067		 0.00019294		-0.00009295		-0.00022368
Si		6.52711801		4.26952817		1.22461647		 0.00025960		 0.00002268		 0.00006213
Si		0.28521657		3.44838632		3.75957481		-0.00025960		-0.00002268		-0.00006213
Si		0.93761970		4.94026843		1.26747965		-0.00015144		 0.00012635		 0.00023826
Si		5.87471585		2.77764606		3.71671067		 0.00015144		-0.00012635		-0.00023826
O		0.75899907		0.61565104		0.68781790		-0.00019154		-0.00048663		 0.00047816
O		6.05333743		7.10226345		4.29637338		 0.00019154		 0.00048663		-0.00047816
O		7.76403065		-0.22495295		1.80427726		-0.00023572		 0.00002619		 0.00031706
O		-0.95169511		7.94286743		3.17991402		 0.00023572		-0.00002619		-0.00031706
O		5.00874327		4.37337936		0.68781790		-0.00012675		-0.00048283		 0.00050141
O		1.80359227		3.34453609		4.29637338		 0.00012675		 0.00048283		-0.00050141
O		2.47507516		4.67741919		1.80427726		-0.00028157		 0.00001070		 0.00029379
O		4.33726134		3.04049530		3.17991402		 0.00028157		-0.00001070		-0.00029379
O		2.66412145		1.87987675		1.58447374		-0.00048269		-0.00035440		-0.00003518
O		4.14821506		5.83803774		3.39971658		 0.00048269		 0.00035440		 0.00003518
O		5.49539260		1.54012433		0.90762142		-0.00032076		-0.00002468		-0.00041298
O		1.31694198		6.17779112		4.07656986		 0.00032076		 0.00002468		 0.00041298
O		6.91386469		5.63760412		1.58447374		-0.00049048		-0.00040692		-0.00004568
O		-0.10152914		2.08031037		3.39971658		 0.00049048		 0.00040692		 0.00004568
O		0.20643808		6.44249646		0.90762142		-0.00032191		-0.00004354		-0.00041318
O		6.60589939		1.27541803		4.07656986		 0.00032191		 0.00004354		 0.00041318
O		3.32927804		-0.34403336		0.12859244		 0.00023036		-0.00009627		-0.00017911
O		3.48305846		8.06194785		4.85559884		-0.00023036		 0.00009627		 0.00017911
O		5.35233567		-0.58679985		2.36350368		 0.00026799		 0.00024652		-0.00018592
O		1.45999988		8.30471434		2.62068760		-0.00026799		-0.00024652		 0.00018592
O		7.57902224		3.41369496		0.12859244		 0.00025919		-0.00011210		-0.00020819
O		-0.76668574		4.30422049		4.85559884		-0.00025919		 0.00011210		 0.00020819
O		0.06338018		4.31557228		2.36350368		 0.00025834		 0.00025155		-0.00020284
O		6.74895633		3.40234221		2.62068760		-0.00025834		-0.00025155		 0.00020284
