# total energy = -24707.5891939 eV

CRYSTAL
PRIMVEC
		9.53870319		1.52619676		0.00000000
		1.38561444		8.66009508		0.00000000
		-1.68715207		-0.26993969		4.98419534
PRIMECORD
   40 1
Mg		0.83108563		7.76297546		1.24604835		 0.00010096		-0.00078101		 0.00023353
Mg		-1.13262229		0.62717895		3.73814313		-0.00010096		 0.00078101		-0.00023353
Mg		4.90762807		4.19602148		1.24604835		 0.00009322		-0.00075618		 0.00024101
Mg		4.32953556		5.72032487		3.73814313		-0.00009322		 0.00075618		-0.00024101
Mg		-0.02605598		2.40583849		1.24604835		 0.00015445		 0.00031258		 0.00023450
Mg		-0.27547972		5.98431689		3.73814313		-0.00015445		-0.00031258		-0.00023450
Mg		5.43610187		7.49898441		1.24604835		 0.00015812		 0.00029473		 0.00024532
Mg		3.80106176		2.41736290		3.73814313		-0.00015812		-0.00029473		-0.00024532
Si		2.50041012		1.17622957		1.22461566		-0.00037524		-0.00046268		 0.00034433
Si		6.73675350		8.74011775		3.75957486		 0.00037524		 0.00046268		-0.00034433
Si		6.44961220		1.80810233		1.26748008		-0.00016387		 0.00062382		-0.00046160
Si		2.78755142		8.10824595		3.71671043		 0.00016387		-0.00062382		 0.00046160
Si		7.96256797		6.26937549		1.22461566		-0.00034266		-0.00049026		 0.00035551
Si		1.27459565		3.64697183		3.75957486		 0.00034266		 0.00049026		-0.00035551
Si		2.37306976		5.37505535		1.26748008		-0.00017641		 0.00046583		-0.00041006
Si		6.86409386		4.54129196		3.71671043		 0.00017641		-0.00046583		 0.00041006
O		0.95977453		0.85226426		0.68781782		 0.00014951		-0.00068127		 0.00043158
O		8.27738910		9.06408402		4.29637270		-0.00014951		 0.00068127		-0.00043158
O		7.96480716		1.97306848		1.80427696		-0.00028474		-0.00058068		 0.00014386
O		1.27235743		7.94327884		3.17991356		 0.00028474		 0.00058068		-0.00014386
O		6.42193237		5.94541018		0.68781782		 0.00012637		-0.00069536		 0.00042724
O		2.81523125		3.97093810		4.29637270		-0.00012637		 0.00069536		-0.00042724
O		3.88826472		5.54002247		1.80427696		-0.00024790		-0.00057409		 0.00016265
O		5.34889890		4.37632485		3.17991356		 0.00024790		 0.00057409		-0.00016265
O		3.28899841		2.70081600		1.58447375		-0.00053374		-0.00003676		 0.00017375
O		5.94816522		7.21553131		3.39971676		 0.00053374		 0.00003676		-0.00017375
O		6.12027109		3.15381894		0.90762102		-0.00031797		 0.00023107		 0.00026263
O		3.11689157		6.76252741		4.07656949		 0.00031797		-0.00023107		-0.00026263
O		8.75115625		7.79396192		1.58447375		-0.00054075		-0.00001425		 0.00017102
O		0.48600737		2.12238636		3.39971676		 0.00054075		 0.00001425		-0.00017102
O		2.04372962		6.72077292		0.90762102		-0.00037486		 0.00039245		 0.00018504
O		7.19343401		3.19557342		4.07656949		 0.00037486		-0.00039245		-0.00018504
O		3.34503910		0.59005645		0.12859230		-0.00069686		-0.00044863		 0.00056548
O		5.89212356		9.32629183		4.85559918		 0.00069686		 0.00044863		-0.00056548
O		5.36809723		0.91374451		2.36350344		-0.00023936		 0.00016597		-0.00031460
O		3.86906542		9.00260183		2.62068804		 0.00023936		-0.00016597		 0.00031460
O		8.80719791		5.68320140		0.12859230		-0.00070304		-0.00045807		 0.00054601
O		0.42996571		4.23314591		4.85559918		 0.00070304		 0.00045807		-0.00054601
O		1.29155576		4.48069850		2.36350344		-0.00021600		 0.00016717		-0.00033145
O		7.94560883		5.43564785		2.62068804		 0.00021600		-0.00016717		 0.00033145
