# total energy = -24708.6193963 eV

CRYSTAL
PRIMVEC
		9.27320348		-1.48371669		0.00000000
		-1.39625694		8.72660117		0.00000000
		0.00000000		0.00000000		5.32170000
PRIMECORD
   40 1
Mg		-1.26333183		7.89582745		1.33042500		 0.00001945		 0.00054488		 0.00022445
Mg		-0.13292417		0.83077185		3.99127500		-0.00001945		-0.00054488		-0.00022445
Mg		3.80554816		4.45221596		3.99127500		-0.00001945		-0.00054488		 0.00022445
Mg		4.07139557		2.79067227		1.33042500		 0.00001945		 0.00054488		-0.00022445
Mg		-0.36958859		2.30993101		1.33042500		 0.00006473		-0.00027850		 0.00030206
Mg		-1.02666741		6.41666922		3.99127500		-0.00006473		 0.00027850		-0.00030206
Mg		4.30806092		1.31151311		3.99127500		-0.00006473		 0.00027850		 0.00030206
Mg		3.56888281		5.93137513		1.33042500		 0.00006473		-0.00027850		-0.00030206
Si		2.57802290		0.36640874		0.35442470		-0.00015693		-0.00050343		 0.00010592
Si		5.29892083		6.87647762		4.96727529		 0.00015693		 0.00050343		-0.00010592
Si		1.36044943		3.25503444		3.01527470		 0.00015693		 0.00050343		 0.00010592
Si		6.51649523		3.98785286		2.30642530		-0.00015693		-0.00050343		-0.00010592
Si		6.43938265		-0.25140758		2.30642530		 0.00044376		 0.00039981		-0.00003256
Si		1.43756108		7.49429581		3.01527470		-0.00044376		-0.00039981		 0.00003256
Si		6.77228941		2.38913970		4.96727529		-0.00044376		-0.00039981		-0.00003256
Si		1.10465525		4.85374760		0.35442470		 0.00044376		 0.00039981		 0.00003256
O		0.95705742		0.64276954		0.42147937		-0.00003960		 0.00000300		 0.00075331
O		6.91988725		6.60011776		4.90022063		 0.00003960		-0.00000300		-0.00075331
O		2.98141492		2.97867270		3.08232937		 0.00003960		-0.00000300		 0.00075331
O		4.89552881		4.26421366		2.23937063		-0.00003960		 0.00000300		-0.00075331
O		8.05476416		-0.49286335		2.23937063		 0.00028948		 0.00013395		-0.00018767
O		-0.17782043		7.73575065		3.08232937		-0.00028948		-0.00013395		 0.00018767
O		5.15690791		2.63059454		4.90022063		-0.00028948		-0.00013395		-0.00018767
O		2.72003582		4.61229276		0.42147937		 0.00028948		 0.00013395		 0.00018767
O		3.14331266		1.62797222		0.37251862		 0.00022294		 0.00036705		-0.00017564
O		4.73363107		5.61491602		4.94918137		-0.00022294		-0.00036705		 0.00017564
O		0.79515874		1.99347190		3.03336862		-0.00022294		-0.00036705		-0.00017564
O		7.08178499		5.24941540		2.28833137		 0.00022294		 0.00036705		 0.00017564
O		5.43008322		1.26208844		2.28833137		 0.00005835		-0.00022732		-0.00017363
O		2.44685957		5.98079980		3.03336862		-0.00005835		 0.00022732		 0.00017363
O		7.78158884		0.87564275		4.94918137		-0.00005835		 0.00022732		-0.00017363
O		0.09535583		6.36724361		0.37251862		 0.00005835		-0.00022732		 0.00017363
O		1.88710214		7.98273030		1.53903618		-0.00013013		 0.00036484		 0.00044056
O		5.98984159		-0.73984300		3.78266382		 0.00013013		-0.00036484		-0.00044056
O		0.65511420		4.36531311		4.19988618		 0.00013013		-0.00036484		 0.00044056
O		7.22183047		2.87757513		1.12181382		-0.00013013		 0.00036484		-0.00044056
O		4.66535274		7.53820976		1.12181382		-0.00004046		-0.00006265		-0.00008237
O		3.21159099		-0.29532340		4.19988618		 0.00004046		 0.00006265		 0.00008237
O		7.15006332		3.32612072		3.78266382		 0.00004046		 0.00006265		-0.00008237
O		0.72688134		3.91676564		1.53903618		-0.00004046		-0.00006265		 0.00008237
