# total energy = -117592.066154 eV	

CRYSTAL	
PRIMVEC	
		10.58799967		0.00000000		0.00000000	
		0.00000000		14.09700041		1.12775961	
		-2.45393833		0.78156378		9.76951553	
PRIMCOORD
   156 1	
Si		8.18330189		0.07190946		0.72552574		 0.00014146		-0.00011296		-0.00006107	
Si		-0.04923632		14.80665261		10.17175364		-0.00014146		 0.00011296		 0.00006107	
Si		1.17773073		7.39528366		4.72534696		 0.00012932		 0.00002678		 0.00005527	
Si		6.95633484		7.48327735		6.17193348		-0.00012932		-0.00002678		-0.00005527	
Si		3.61492732		3.19979938		6.79442209		-0.00005732		-0.00000889		-0.00024051	
Si		4.51914037		11.67876269		4.10285940		 0.00005732		 0.00000889		 0.00024051	
Si		3.29217333		10.36775234		8.85147561		 0.00018542		-0.00026911		-0.00037192	
Si		4.84189437		4.51080868		2.04580483		-0.00018542		 0.00026911		 0.00037192	
Si		1.21183891		2.10270474		4.31067642		-0.00008717		 0.00010111		 0.00001909	
Si		6.92222666		12.77585628		6.58660401		 0.00008717		-0.00010111		-0.00001909	
Si		8.14919371		8.87492168		1.42103132		 0.00009674		-0.00015098		-0.00010136	
Si		-0.01512708		6.00363934		9.47625018		-0.00009674		 0.00015098		 0.00010136	
Si		6.86524205		2.18641770		5.73702186		 0.00022338		-0.00029253		 0.00004133	
Si		1.26882459		12.69214332		5.16025858		-0.00022338		 0.00029253		-0.00004133	
Si		0.04185754		9.51159080		9.75931188		-0.00027105		-0.00003899		-0.00016917	
Si		8.09220909		5.36697127		1.13796856		 0.00027105		 0.00003899		 0.00016917	
Mg		4.06703279		0.39078083		4.88475988		0.00000000		0.00000000		0.00000000	
Mg		5.29399984		7.04850020		0.56387980		0.00000000		0.00000000		0.00000000	
Mg		4.39572559		2.73860835		3.67856437		 0.00035164		-0.00001663		-0.00011891	
Mg		3.73834104		12.13995372		7.21871606		-0.00035164		 0.00001663		 0.00011891	
Mg		4.96530809		9.62080814		2.16368632		 0.00009385		 0.00048909		-0.00002353	
Mg		3.16875854		5.25775394		8.73359517		-0.00009385		-0.00048909		 0.00002353	
Mg		5.29399984		0.00000000		0.00000000		0.00000000		0.00000000		0.00000000	
Mg		4.06703279		7.43928104		5.44863969		0.00000000		0.00000000		0.00000000	
Mg		6.19165257		0.26420871		2.86664479		 0.00014413		 0.00011276		-0.00002514	
Mg		1.94241301		14.61435336		8.03063458		-0.00014413		-0.00011276		 0.00002514	
Mg		3.16938006		7.24527500		2.58761077		 0.00038937		 0.00022660		-0.00015938	
Mg		4.96468552		7.63328601		8.30966967		-0.00038937		-0.00022660		 0.00015938	
Mg		0.42170944		0.12404371		1.48926992		-0.00014428		-0.00050977		-0.00001774	
Mg		7.71235825		14.75451730		9.40801052		 0.00014428		 0.00050977		 0.00001774	
Mg		8.93932424		7.32510428		3.96015964		-0.00006639		-0.00019222		-0.00020561	
Mg		-0.80525761		7.55345673		6.93712080		 0.00006639		 0.00019222		 0.00020561	
Mg		-0.86838750		0.50100720		6.20130459		 0.00009939		 0.00003667		 0.00007212	
Mg		9.00245519		14.37755487		4.69597585		-0.00009939		-0.00003667		-0.00007212	
Mg		7.77548814		7.72970351		9.01764474		-0.00011134		 0.00015500		 0.00024420	
Mg		0.35857849		7.14885750		1.87963464		 0.00011134		-0.00015500		-0.00024420	
Mg		3.19404057		0.20743585		2.10796697		-0.00011067		 0.00012955		-0.00014623	
Mg		4.94002607		14.67112516		8.78931346		 0.00011067		-0.00012955		 0.00014623	
Mg		6.16699311		7.30994227		3.34692070		 0.00026373		 0.00030616		-0.00009610	
Mg		1.96707352		7.56861981		7.55035974		-0.00026373		-0.00030616		 0.00009610	
Mg		6.57114024		2.49225313		1.39926239		 0.00026397		 0.00011807		-0.00022077	
Mg		1.56292640		12.38630895		9.49801910		-0.00026397		-0.00011807		 0.00022077	
Mg		2.78989239		9.73831587		4.43268194		-0.00010650		-0.00005492		 0.00044164	
Mg		5.34417319		5.14024620		6.46459955		 0.00010650		 0.00005492		-0.00044164	
Mg		-1.63791484		3.19709203		9.66873789		 0.00023555		 0.00016545		-0.00013483	
Mg		9.77198042		11.68146899		1.22854254		-0.00023555		-0.00016545		 0.00013483	
Mg		8.54501337		9.90215882		5.93969629		-0.00007736		-0.00019195		-0.00037187	
Mg		-0.41094780		4.97640326		4.95758520		 0.00007736		 0.00019195		 0.00037187	
Mg		0.46893509		3.08569886		7.54622619		-0.00000877		-0.00031208		-0.00018499	
Mg		7.66513154		11.79286215		3.35105531		 0.00000877		 0.00031208		 0.00018499	
Mg		6.43816449		10.13112007		8.07161332		 0.00054904		-0.00001070		 0.00005818	
Mg		1.69590108		4.74744094		2.82566712		-0.00054904		 0.00001070		-0.00005818	
Mg		6.00405545		3.17947254		8.94076104		 0.00012474		 0.00000811		-0.00028208	
Mg		2.13001119		11.69908742		1.95652046		-0.00012474		-0.00000811		 0.00028208	
Mg		0.90304414		10.00153990		6.67421336		 0.00028467		-0.00042285		-0.00020563	
Mg		7.23102249		4.87702217		4.22306602		-0.00028467		 0.00042285		 0.00020563	
Mg		3.60529224		2.41157998		0.63071232		-0.00017703		 0.00022690		 0.00002906	
Mg		4.52877334		12.46698209		10.26656918		 0.00017703		-0.00022690		-0.00002906	
Mg		5.75574038		9.78036400		5.19814032		-0.00031757		 0.00032436		 0.00013549	
Mg		2.37832519		5.09819808		5.69913906		 0.00031757		-0.00032436		-0.00013549	
Mg		9.40458318		2.65760803		2.14255267		-0.00028756		-0.00013046		 0.00020933	
Mg		-1.27051655		12.22095404		8.75472670		 0.00028756		 0.00013046		-0.00020933	
Mg		-0.04354950		9.78610799		3.70644152		-0.00007338		 0.00009004		-0.00039010	
Mg		8.17761719		5.09245303		7.19083892		 0.00007338		-0.00009004		 0.00039010	
O		3.63390525		1.58342794		6.62647842		 0.00018681		 0.00000812		-0.00023763	
O		4.50016138		13.29513308		4.27080202		-0.00018681		-0.00000812		 0.00023763	
O		3.27319539		8.75760346		8.76129762		-0.00018789		 0.00015269		-0.00010755	
O		4.86087230		6.12095861		2.13598282		 0.00018789		-0.00015269		 0.00010755	
O		5.72267194		1.58556354		4.60468188		 0.00010318		-0.00000917		-0.00073500	
O		2.41139469		13.29299748		6.29259750		-0.00010318		 0.00000917		 0.00073500	
O		3.63836068		8.30377533		1.03996286		-0.00060980		 0.00014788		-0.00053521	
O		4.49570490		6.57478569		9.85731758		 0.00060980		-0.00014788		 0.00053521	
O		6.88739955		3.83080181		5.86468984		 0.00038186		-0.00029766		 0.00012933	
O		1.24666708		11.04775815		5.03259059		-0.00038186		 0.00029766		-0.00012933	
O		0.01970003		11.15660067		9.89479592		 0.00017693		 0.00014778		 0.00005349	
O		8.11436554		3.72196141		1.00248451		-0.00017693		-0.00014778		-0.00005349	
O		6.50173167		1.77920323		7.21776526		 0.00028306		-0.00047501		-0.00015312	
O		1.63233497		13.09935884		3.67951518		-0.00028306		 0.00047501		 0.00015312	
O		0.40536792		8.86068505		8.19391848		 0.00030203		-0.00080930		-0.00023857	
O		7.72869871		6.01787702		2.70336196		-0.00030203		 0.00080930		 0.00023857	
O		1.23586097		3.75060830		4.42455036		-0.00000734		 0.00013148		 0.00015695	
O		6.89820461		11.12795377		6.47273008		 0.00000734		-0.00013148		-0.00015695	
O		8.12517166		10.52571788		1.57105269		-0.00014627		 0.00006002		 0.00019434	
O		0.00889392		4.35284419		9.32622775		 0.00014627		-0.00006002		-0.00019434	
O		2.73335141		1.53376281		3.85212922		-0.00001423		 0.00020055		-0.00005654	
O		5.40071417		13.34479821		7.04515228		 0.00001423		-0.00020055		 0.00005654	
O		6.62768122		8.37249145		1.79386867		 0.00030040		 0.00015656		 0.00045033	
O		1.50638648		6.50606851		9.10341071		-0.00030040		-0.00015656		-0.00045033	
O		0.80050677		1.68240456		5.78018066		 0.00022338		-0.00037966		-0.00050634	
O		7.33355880		13.19615540		5.11709871		-0.00022338		 0.00037966		 0.00050634	
O		6.10659175		8.99413514		9.63443595		 0.00000310		-0.00040737		-0.00055326	
O		2.02747382		5.88442693		1.26284449		-0.00000310		 0.00040737		 0.00055326	
O		0.07524997		1.48977920		3.19727097		-0.00011095		-0.00004717		-0.00010459	
O		8.05881560		13.38878287		7.70000947		 0.00011095		 0.00004717		 0.00010459	
O		9.28578265		8.43339362		2.45008112		-0.00027440		 0.00010644		-0.00001337	
O		-1.15171602		6.44516739		8.44719931		 0.00027440		-0.00010644		 0.00001337	
O		3.98348606		3.81528721		5.44313605		-0.00016765		-0.00008644		 0.00026009	
O		4.15057952		11.06327486		5.45414439		 0.00016765		 0.00008644		-0.00026009	
O		2.92361247		11.20876774		10.31928259		 0.00040293		 0.00027907		 0.00017143	
O		5.21045311		3.66979433		0.57799784		-0.00040293		-0.00027907		-0.00017143	
O		4.65489441		3.97277206		7.88442490		 0.00006944		 0.00013268		-0.00008822	
O		3.47917116		10.90579001		3.01285554		-0.00006944		-0.00013268		 0.00008822	
O		2.25220517		10.97515941		7.87190247		 0.00025861		-0.00024020		-0.00008026	
O		5.88186146		3.90340161		3.02537797		-0.00025861		 0.00024020		 0.00008026	
O		4.87379495		1.33416207		1.77730692		-0.00021841		-0.00004943		 0.00028294	
O		3.26027062		13.54440000		9.11997352		 0.00021841		 0.00004943		-0.00028294	
O		4.48723767		8.50442851		3.86327838		 0.00037334		-0.00033882		 0.00014527	
O		3.64682896		6.37413250		7.03400311		-0.00037334		 0.00033882		-0.00014527	
O		4.67919493		1.80677544		9.55838658		 0.00009743		-0.00010316		 0.00027331	
O		3.45487170		13.07178558		1.33889385		-0.00009743		 0.00010316		-0.00027331	
O		2.22790466		8.51170035		5.82758526		-0.00018129		 0.00040014		 0.00031617	
O		5.90616198		6.36686067		5.06969518		 0.00018129		-0.00040014		-0.00031617	
O		7.85626399		1.23846138		2.22685009		 0.00029753		 0.00010116		 0.00019300	
O		0.27780158		13.64010069		8.67042929		-0.00029753		-0.00010116		-0.00019300	
O		1.50476863		8.33510522		3.39253274		 0.00015585		 0.00001503		 0.00004630	
O		6.62929800		6.54345685		7.50474770		-0.00015585		-0.00001503		-0.00004630	
O		-1.10338921		1.64896977		8.11106738		-0.00004095		 0.00013717		 0.00009987	
O		9.23745584		13.22959124		2.78621200		 0.00004095		-0.00013717		-0.00009987	
O		8.01048880		8.58492378		7.26813661		-0.00088033		-0.00017407		 0.00007456	
O		0.12357784		6.29363724		3.62914383		 0.00088033		 0.00017407		-0.00007456	
O		9.65343718		1.14392748		0.36233935		-0.00029459		-0.00015172		 0.00022982	
O		-1.51937054		13.73463459		10.53494215		 0.00029459		 0.00015172		-0.00022982	
O		-0.29240349		8.53959549		5.26583999		-0.00006102		 0.00016170		 0.00023851	
O		8.42647013		6.33896446		5.63143939		 0.00006102		-0.00016170		-0.00023851	
O		1.35807613		1.72546384		8.71708001		-0.00000596		-0.00026109		 0.00022229	
O		6.77599050		13.15309612		2.18020042		 0.00000596		 0.00026109		-0.00022229	
O		5.54902345		8.56481822		6.66663553		 0.00030211		 0.00024792		-0.00004480	
O		2.58504318		6.31374385		4.23064491		-0.00030211		-0.00024792		 0.00004480	
O		2.03629998		1.08324025		0.77682671		-0.00038601		 0.00010872		-0.00011777	
O		6.09776666		13.79532077		10.12045372		 0.00038601		-0.00010872		 0.00011777	
O		7.32473264		8.41138223		4.83624038		 0.00036450		-0.00052091		-0.00021018	
O		0.80933293		6.46717879		6.06104006		-0.00036450		 0.00052091		 0.00021018	
O		2.21259335		3.93120993		7.25985150		-0.00019250		-0.00022147		-0.00011565	
O		5.92147434		10.94735215		3.63742894		 0.00019250		 0.00022147		 0.00011565	
O		4.69450729		11.03363799		8.49782901		 0.00040464		-0.00066004		 0.00042528	
O		3.43956040		3.84492408		2.39945143		-0.00040464		 0.00066004		-0.00042528	
O		8.35511654		1.61412043		5.25927649		-0.00019005		-0.00007997		-0.00016465	
O		-0.22104990		13.26444164		5.63800395		 0.00019005		 0.00007997		 0.00016465	
O		-1.44801695		9.00885140		10.15105410		 0.00029654		-0.00004111		 0.00001227	
O		9.58208359		5.86970961		0.74622633		-0.00029654		 0.00004111		-0.00001227	
O		-0.84821948		3.98960380		6.50155379		 0.00033341		 0.00017171		 0.00029036	
O		8.98228717		10.88895827		4.39572665		-0.00033341		-0.00017171		-0.00029036	
O		7.75532012		11.21489290		9.27529841		 0.00012432		 0.00001152		-0.00044448	
O		0.37874651		3.66366918		1.62198096		-0.00012432		-0.00001152		 0.00044448	
O		8.86703150		3.78187572		3.83492584		-0.00028239		-0.00044101		 0.00061940	
O		-0.73296592		11.09668529		7.06235460		 0.00028239		 0.00044101		-0.00061940	
O		0.49400112		10.65233553		2.17330869		-0.00024225		 0.00003111		-0.00018509	
O		7.64006445		4.22622548		8.72397174		 0.00024225		-0.00003111		 0.00018509	
H		-1.20765983		3.18965819		6.07937001		-0.00031930		 0.00010294		-0.00006983	
H		9.34172647		11.68890282		4.81790937		 0.00031930		-0.00010294		 0.00006983	
H		8.11475942		10.47262647		9.57410553		-0.00019144		 0.00011000		 0.00018237	
H		0.01930722		4.40593454		1.32317491		 0.00019144		-0.00011000		-0.00018237	
H		8.69894806		3.20091747		4.29418350		 0.00009732		 0.00076801		 0.00018664	
H		-0.56488143		11.67764354		6.60309694		-0.00009732		-0.00076801		-0.00018664	
H		0.66208562		9.98993863		1.61458313		 0.00034897		 0.00020783		-0.00056659	
H		7.47198101		4.88862239		9.28269731		-0.00034897		-0.00020783		 0.00056659	
