# total energy = -18390.9279864 eV

CRYSTAL
PRIMVEC
		11.10979961		0.00000000		0.00000000
		0.00000000		6.38940129		0.00000000
		0.00000000		0.00000000		4.70739985
PRIMECORD
   28 1
Mg		0.00000000		0.00000000		0.00000000		0.00000000		0.00000000		-0.00000000
Mg		5.55489981		0.00000000		2.35369882		0.00000000		-0.00000000		0.00000000
Mg		0.00000000		3.19469954		0.00000000		0.00000000		0.00000000		-0.00000000
Mg		5.55489981		3.19469954		2.35369882		0.00000000		-0.00000000		0.00000000
Ca		3.07563692		1.59735032		4.60124572		-0.00027863		-0.00000000		-0.00017584
Ca		8.03416380		4.79204986		0.10615191		 0.00027863		-0.00000000		 0.00017584
Ca		2.47926288		4.79204986		2.24754690		 0.00027863		0.00000000		-0.00017584
Ca		8.63053673		1.59735032		2.45985073		-0.00027863		0.00000000		 0.00017584
Si		0.90611526		1.59735032		1.93464606		-0.00013258		-0.00000000		-0.00021738
Si		10.20368436		4.79204986		2.77275046		 0.00013258		0.00000000		 0.00021738
Si		4.64878455		4.79204986		4.28834488		 0.00013258		0.00000000		-0.00021738
Si		6.46101617		1.59735032		0.41905275		-0.00013258		0.00000000		 0.00021738
O		0.86289814		1.59735032		3.51030561		-0.00013705		-0.00000000		-0.00045460
O		10.24690148		4.79204986		1.19709091		 0.00013705		0.00000000		 0.00045460
O		4.69200167		4.79204986		1.15660791		 0.00013705		0.00000000		-0.00045460
O		6.41779794		1.59735032		3.55078972		-0.00013705		0.00000000		 0.00045460
O		4.98841224		1.59735032		1.15801996		-0.00085397		-0.00000000		-0.00062586
O		6.12138849		4.79204986		3.54937767		 0.00085397		0.00000000		 0.00062586
O		0.56648868		4.79204986		3.51171878		 0.00085397		0.00000000		-0.00062586
O		10.54331204		1.59735032		1.19567885		-0.00085397		-0.00000000		 0.00062586
O		1.63902874		0.29199553		1.28653146		 0.00022840		-0.00059000		 0.00062622
O		9.47077088		6.09740354		3.42086617		-0.00022840		 0.00059000		-0.00062622
O		3.91587107		6.09740354		3.64023139		-0.00022840		 0.00059000		 0.00062622
O		7.19392854		0.29199553		1.06716736		 0.00022840		-0.00059000		-0.00062622
O		9.47077088		3.48669618		3.42086617		-0.00022840		-0.00059000		-0.00062622
O		1.63902874		2.90270401		1.28653146		 0.00022840		 0.00059000		 0.00062622
O		7.19392854		2.90270401		1.06716736		 0.00022840		 0.00059000		-0.00062622
O		3.91587107		3.48669618		3.64023139		-0.00022840		-0.00059000		 0.00062622
