# total energy = -18389.5010048 eV

CRYSTAL
PRIMVEC
		11.10979961		0.00000000		0.00000000
		0.00000000		6.38940129		-0.51115077
		0.00000000		-0.38624329		4.82809672
PRIMECORD
   28 1
Mg		0.00000000		0.00000000		0.00000000		0.00000000		0.00000000		0.00000000
Mg		5.55489981		-0.19312387		2.41404947		0.00000000		-0.00000000		-0.00000000
Mg		0.00000000		3.19469954		-0.25557650		0.00000000		0.00000000		0.00000000
Mg		5.55489981		3.00157567		2.15847408		0.00000000		-0.00000000		-0.00000000
Ca		3.07563692		1.21981156		4.59143910		-0.00052779		 0.00021580		-0.00072453
Ca		8.03416380		4.78333978		-0.27448982		 0.00052779		-0.00021580		 0.00072453
Ca		2.47926288		4.60763607		1.92181313		 0.00052779		 0.00021580		-0.00072453
Ca		8.63053673		1.39551637		2.39513615		-0.00052779		-0.00021580		 0.00072453
Si		0.90611526		1.43861017		1.85646529		 0.00053724		-0.00056436		-0.00065448
Si		10.20368436		4.56454227		2.46048399		-0.00053724		 0.00056436		 0.00065448
Si		4.64878455		4.44018584		4.01493937		-0.00053724		-0.00056436		-0.00065448
Si		6.46101617		1.56296549		0.30200990		 0.00053724		 0.00056436		 0.00065448
O		0.86289814		1.30932544		3.47252563		 0.00015846		-0.00085109		-0.00046844
O		10.24690148		4.69382701		0.84442143		-0.00015846		 0.00085109		 0.00046844
O		4.69200167		4.69714884		0.80289966		-0.00015846		-0.00085109		-0.00046844
O		6.41779794		1.30600249		3.51404739		 0.00015846		 0.00085109		 0.00046844
O		4.98841224		1.50233265		1.05992488		-0.00041168		 0.00087600		 0.00030423
O		6.12138849		4.50081868		3.25702440		 0.00041168		-0.00087600		-0.00030423
O		0.56648868		4.50390832		3.21839896		 0.00041168		 0.00087600		 0.00030423
O		10.54331204		1.49924302		1.09854921		-0.00041168		-0.00087600		-0.00030423
O		1.63902874		0.18643355		1.29616032		-0.00051499		 0.00054827		 0.00034786
O		9.47077088		5.81671779		3.02078784		 0.00051499		-0.00054827		-0.00034786
O		3.91587107		5.79871880		3.24577795		-0.00014184		 0.00000608		-0.00085414
O		7.19392854		0.20443253		1.07117133		 0.00014184		-0.00000608		 0.00085414
O		9.47077088		3.20600931		3.22964541		-0.00014184		-0.00000608		 0.00085414
O		1.63902874		2.79714313		1.08730276		 0.00014184		 0.00000608		-0.00085414
O		7.19392854		2.81514212		0.86231376		-0.00051499		-0.00054827		-0.00034786
O		3.91587107		3.18801033		3.45463441		 0.00051499		 0.00054827		 0.00034786
