# total energy = -18385.0567802 eV

CRYSTAL
PRIMVEC
		11.10979961		0.00000000		0.00000000
		0.00000000		6.38940129		-1.02230154
		0.00000000		-0.77249770		4.82809672
PRIMECORD
   28 1
Mg		0.00000000		0.00000000		0.00000000		0.00000000		0.00000000		0.00000000
Mg		5.55489981		-0.38624774		2.41404947		0.00000000		0.00000000		0.00000000
Mg		0.00000000		3.19469954		-0.51115188		0.00000000		0.00000000		0.00000000
Mg		5.55489981		2.80845180		1.90289759		0.00000000		0.00000000		0.00000000
Ca		3.07563692		0.84227390		4.46365085		-0.00020531		 0.00018083		-0.00053492
Ca		8.03416380		4.77462969		-0.65785345		 0.00020531		-0.00018083		 0.00053492
Ca		2.47926288		4.42322229		1.53844950		 0.00020531		 0.00018083		-0.00053492
Ca		8.63053673		1.19368242		2.26734790		-0.00020531		-0.00018083		 0.00053492
Si		0.90611526		1.27987002		1.72867704		-0.00031595		-0.00007365		 0.00046353
Si		10.20368436		4.33703357		2.07712035		 0.00031595		 0.00007365		-0.00046353
Si		4.64878455		4.08832182		3.63157463		 0.00031595		-0.00007365		 0.00046353
Si		6.46101617		1.52858177		0.17422166		-0.00031595		 0.00007365		-0.00046353
O		0.86289814		1.02129944		3.34473738		 0.00018940		 0.00064671		 0.00072926
O		10.24690148		4.59560416		0.46105779		-0.00018940		-0.00064671		-0.00072926
O		4.69200167		4.60224782		0.41953603		-0.00018940		 0.00064671		 0.00072926
O		6.41779794		1.01465578		3.38626026		 0.00018940		-0.00064671		-0.00072926
O		4.98841224		1.40731609		0.93213663		 0.00029980		-0.00028206		 0.00032536
O		6.12138849		4.20958751		2.87365966		-0.00029980		 0.00028206		-0.00032536
O		0.56648868		4.21576789		2.83503533		-0.00029980		-0.00028206		 0.00032536
O		10.54331204		1.40113571		0.97076096		 0.00029980		 0.00028206		-0.00032536
O		1.63902874		0.08087156		1.27279975		-0.00039774		-0.00048430		-0.00058918
O		9.47077088		5.53603092		2.53299543		 0.00039774		 0.00048430		 0.00058918
O		3.91587107		5.50003295		2.75798442		 0.00064555		-0.00003386		-0.00004293
O		7.19392854		0.11687065		1.04781075		-0.00064555		 0.00003386		 0.00004293
O		9.47077088		2.92532245		2.95070945		 0.00064555		 0.00003386		 0.00004293
O		1.63902874		2.69158115		0.85508684		-0.00064555		-0.00003386		-0.00004293
O		7.19392854		2.72757912		0.63009784		-0.00039774		 0.00048430		 0.00058918
O		3.91587107		2.88932336		3.17569845		 0.00039774		-0.00048430		-0.00058918
