# total energy = -41256.0129985 eV

CRYSTAL
PRIMVEC
		5.69830219		0.00000000		0.91173089
		0.00000000		11.43799816		0.00000000
		1.32105790		0.00000000		8.25659744
PRIMECORD
   56 1
Mg		0.00000000		0.00000000		0.00000000		0.00000000		0.00000000		0.00000000
Mg		0.00000000		5.71900023		0.00000000		0.00000000		0.00000000		0.00000000
Mg		3.50967831		5.71900023		4.58416417		0.00000000		0.00000000		0.00000000
Mg		3.50967831		0.00000000		4.58416417		0.00000000		0.00000000		0.00000000
Mg		1.28155577		2.85949983		8.00972821		-0.00075581		-0.00000000		 0.00044981
Mg		0.03949982		8.57850006		0.24687213		 0.00075581		0.00000000		-0.00044981
Mg		3.47017792		8.57850006		4.33729204		-0.00075581		-0.00000000		 0.00044980
Mg		3.54917813		2.85949983		4.83103687		 0.00075581		0.00000000		-0.00044980
Mg		1.75483916		1.45948904		2.29208179		-0.00000001		 0.00031249		0.00000000
Mg		5.26451689		9.97851085		6.87624596		 0.00000001		-0.00031249		-0.00000000
Mg		4.60398910		4.25951120		2.74794609		-0.00000001		-0.00019990		-0.00000001
Mg		2.41536695		7.17848927		6.42038225		 0.00000001		 0.00019990		 0.00000001
Mg		5.26451689		7.17848927		6.87624596		 0.00000001		 0.00031249		-0.00000000
Mg		1.75483916		4.25951120		2.29208179		-0.00000001		-0.00031249		0.00000000
Mg		2.41536695		9.97851085		6.42038225		 0.00000001		-0.00019990		 0.00000001
Mg		4.60398910		1.45948904		2.74794609		-0.00000001		 0.00019990		-0.00000001
Si		0.81482684		1.37027224		5.09267122		 0.00008182		 0.00027033		-0.00055967
Si		0.50622875		10.06772823		3.16392911		-0.00008182		-0.00027033		 0.00055967
Si		0.81482684		4.34872684		5.09267122		 0.00008182		-0.00027033		-0.00055967
Si		0.50622875		7.08927190		3.16392911		-0.00008182		 0.00027033		 0.00055967
Si		3.00344899		7.08927190		1.42023506		 0.00008182		 0.00027033		-0.00055968
Si		4.01590706		4.34872684		7.74809328		-0.00008182		-0.00027033		 0.00055968
Si		3.00344899		10.06772823		1.42023506		 0.00008182		-0.00027033		-0.00055968
Si		4.01590706		1.37027224		7.74809328		-0.00008182		 0.00027033		 0.00055968
O		0.28614111		2.85949983		1.78838007		 0.00072420		-0.00000000		-0.00014140
O		1.03491506		8.57850006		6.46822084		-0.00072420		0.00000000		 0.00014140
O		3.79581885		8.57850006		6.37254424		 0.00072422		-0.00000000		-0.00014139
O		3.22353720		2.85949983		2.79578525		-0.00072422		0.00000000		 0.00014139
O		0.94640518		2.85949983		5.91502893		 0.00061414		-0.00000000		-0.00049956
O		0.37465099		8.57850006		2.34157198		-0.00061414		0.00000000		 0.00049956
O		3.13502675		8.57850006		2.24259276		 0.00061413		0.00000000		-0.00049957
O		3.88432930		2.85949983		6.92573615		-0.00061413		-0.00000000		 0.00049957
O		0.33792576		11.32362020		2.11203816		 0.00006601		-0.00059959		-0.00020971
O		0.98312983		0.11438027		6.14456217		-0.00006601		 0.00059959		 0.00020971
O		0.33792576		5.83337993		2.11203816		 0.00006601		 0.00059959		-0.00020970
O		0.98312983		5.60461996		6.14456217		-0.00006601		-0.00059959		 0.00020970
O		3.84760407		5.60461996		6.69620290		 0.00006602		-0.00059959		-0.00020970
O		3.17175198		5.83337993		2.47212601		-0.00006602		 0.00059959		 0.00020970
O		3.84760407		0.11438027		6.69620290		 0.00006602		 0.00059959		-0.00020970
O		3.17175198		11.32362020		2.47212601		-0.00006602		-0.00059959		 0.00020970
O		2.80125422		1.40115514		8.43309321		 0.00031172		 0.00049678		-0.00054423
O		4.21810183		10.03684533		0.73523628		-0.00031172		-0.00049678		 0.00054423
O		5.51934288		4.31784510		8.86798707		-0.00050750		 0.00022084		 0.00064209
O		1.50001317		7.12015479		0.30034126		 0.00050750		-0.00022084		-0.00064209
O		4.21810183		7.12015479		0.73523628		-0.00031172		 0.00049678		 0.00054423
O		2.80125422		4.31784510		8.43309321		 0.00031172		-0.00049678		-0.00054423
O		1.50001317		10.03684533		0.30034126		 0.00050750		 0.00022085		-0.00064209
O		5.51934288		1.40115514		8.86798707		-0.00050750		-0.00022085		 0.00064209
O		4.98987521		7.12015479		4.76065705		 0.00031170		 0.00049677		-0.00054422
O		2.02948026		4.31784510		4.40767187		-0.00031170		-0.00049677		 0.00054422
O		2.00966514		10.03684533		4.28382290		-0.00050750		 0.00022084		 0.00064209
O		5.00969090		1.40115514		4.88450485		 0.00050750		-0.00022084		-0.00064209
O		2.02948026		1.40115514		4.40767187		-0.00031170		 0.00049677		 0.00054422
O		4.98987521		10.03684533		4.76065705		 0.00031170		-0.00049677		-0.00054422
O		5.00969090		4.31784510		4.88450485		 0.00050750		 0.00022084		-0.00064209
O		2.00966514		7.12015479		4.28382290		-0.00050750		-0.00022084		 0.00064209
