# total energy = -9137.28492065 eV	

CRYSTAL	
PRIMVEC	
		5.33299967		0.00000000		0.00000000	
		-2.66649983		4.61851637		0.00000000	
		0.00000000		0.00000000		8.05639727	
PRIMCOORD
   14 1	
Mg		1.77428899		0.00000000		3.67371788		 0.00038510		0.00000000		 0.00022464	
Mg		-0.88714503		1.53658013		3.67371788		-0.00019255		 0.00033351		 0.00022464	
Mg		1.77935481		3.08193357		3.67371788		-0.00019255		-0.00033351		 0.00022464	
Si		0.00000000		3.07900896		0.62034305		0.00000000		-0.00000000		-0.00016741	
Si		2.66649983		1.53950475		0.62034305		0.00000000		0.00000000		-0.00016741	
O		0.00000000		3.07900896		2.35085665		-0.00000000		-0.00000000		-0.00044818	
O		2.66649983		1.53950475		2.35085665		0.00000000		0.00000000		-0.00044818	
O		2.67183283		0.00000000		8.00000453		-0.00018295		-0.00000000		 0.00044208	
O		-1.33591695		2.31387496		8.00000453		 0.00009147		-0.00015844		 0.00044208	
O		1.33058395		2.30463767		8.00000453		 0.00009147		 0.00015844		 0.00044208	
O		3.53044578		0.00000000		4.76938853		-0.00021624		0.00000000		-0.00019786	
O		-1.76522289		3.05745564		4.76938853		 0.00010812		-0.00018727		-0.00019786	
O		0.90127694		1.56105806		4.76938853		 0.00010812		 0.00018727		-0.00019786	
O		0.00000000		0.00000000		2.44108887		0.00000000		0.00000000		-0.00017543	
