# total energy = -9137.66984425 eV	

CRYSTAL	
PRIMVEC	
		5.33299967		0.00000000		0.00000000	
		-2.66649983		4.61851637		0.00000000	
		0.00000000		0.00000000		6.59159825	
PRIMCOORD
   14 1	
Mg		1.77428899		0.00000000		3.00576981		 0.00027294		-0.00000000		 0.00074148	
Mg		-0.88714503		1.53658013		3.00576981		-0.00013648		 0.00023638		 0.00074148	
Mg		1.77935481		3.08193357		3.00576981		-0.00013648		-0.00023638		 0.00074148	
Si		0.00000000		3.07900896		0.50755278		0.00000000		0.00000000		 0.00019319	
Si		2.66649983		1.53950475		0.50755278		0.00000000		0.00000000		 0.00019319	
O		0.00000000		3.07900896		1.92342899		0.00000000		0.00000000		 0.00004287	
O		2.66649983		1.53950475		1.92342899		0.00000000		0.00000000		 0.00004287	
O		2.67183283		0.00000000		6.54545874		-0.00062793		-0.00000000		-0.00000717	
O		-1.33591695		2.31387496		6.54545874		 0.00031396		-0.00054380		-0.00000717	
O		1.33058395		2.30463767		6.54545874		 0.00031396		 0.00054380		-0.00000717	
O		3.53044578		0.00000000		3.90222678		-0.00055979		-0.00000000		-0.00092661	
O		-1.76522289		3.05745564		3.90222678		 0.00027990		-0.00048480		-0.00092661	
O		0.90127694		1.56105806		3.90222678		 0.00027990		 0.00048480		-0.00092661	
O		0.00000000		0.00000000		1.99725477		-0.00000000		0.00000000		 0.00010479	
