# total energy = -20632.6080486 eV

CRYSTAL
PRIMVEC
		10.10999695		-0.80879773		0.00000000
		-0.46159637		5.76999514		0.00000000
		0.00000000		0.00000000		4.70000276
PRIMECORD
   28 1
Si		8.28181996		2.20398978		4.11344007		-0.00013389		 0.00000028		-0.00001749
Si		1.36657961		2.75720966		0.58655965		 0.00013389		-0.00000028		 0.00001749
Si		3.26148584		-0.26091879		4.14727985		 0.00019305		-0.00004431		 0.00049423
Si		6.84851415		-0.54788097		0.55271986		-0.00019305		 0.00004431		-0.00049423
Mg		4.82420029		2.48059972		0.00000000		0.00000000		0.00000000		0.00000000
Mg		0.00000000		0.00000000		2.35000036		0.00000000		0.00000000		0.00000000
Mg		-0.23080021		2.88499960		2.35000036		0.00000000		0.00000000		0.00000000
Mg		5.05499949		-0.40439988		2.35000036		0.00000000		0.00000000		0.00000000
Mg		2.39265584		1.25733487		2.34530042		-0.00035072		-0.00057593		-0.00056754
Mg		7.25574373		3.70386457		2.35470031		 0.00035072		 0.00057593		 0.00056754
Mg		7.48405097		0.85002314		2.35470031		-0.00033674		 0.00017255		-0.00050178
Mg		2.16434759		4.11117732		2.34530042		 0.00033674		-0.00017255		 0.00050178
O		2.95789434		2.62990351		0.98934994		 0.00016035		-0.00078544		 0.00016072
O		6.69050625		2.33129593		3.71064977		-0.00016035		 0.00078544		-0.00016072
O		1.42926207		2.75219531		3.64578976		-0.00030697		 0.00011761		 0.00011855
O		8.21913750		2.20900515		1.05420995		 0.00030697		-0.00011761		-0.00011855
O		8.39635493		-0.67170831		1.09698003		-0.00035231		-0.00052296		 0.00000225
O		1.71364507		-0.13709246		3.60301968		 0.00035231		 0.00052296		-0.00000225
O		3.36663005		-0.26932980		1.08523018		-0.00016316		 0.00038737		 0.00033691
O		6.74336994		-0.53946996		3.61476954		 0.00016316		-0.00038737		-0.00033691
O		0.74029866		1.43194775		1.07489010		 0.00027492		-0.00018516		 0.00019683
O		8.90810091		3.52925169		3.62510961		-0.00027492		 0.00018516		-0.00019683
O		9.12957629		0.76080639		3.62510961		 0.00002316		 0.00010505		-0.00026291
O		0.51882328		4.20039406		1.07489010		-0.00002316		-0.00010505		 0.00026291
O		5.89196137		0.83635740		1.03870035		-0.00044304		 0.00005183		-0.00021468
O		3.75643921		4.12484305		3.66130038		 0.00044304		-0.00005183		 0.00021468
O		4.00745709		0.98711661		3.66130038		-0.00061597		 0.00009191		-0.00013173
O		5.64094248		3.97408283		1.03870035		 0.00061597		-0.00009191		 0.00013173
