# total energy = -20631.5470077 eV

CRYSTAL
PRIMVEC
		10.11000123		1.21319770		0.00000000
		0.69240195		5.77000270		0.00000000
		0.00000000		0.00000000		4.70000193
PRIMECORD
   28 1
Si		8.85881963		3.90651392		4.11344026		 0.00023278		-0.00007491		 0.00019856
Si		1.94357948		3.07668547		0.58655963		-0.00023278		 0.00007491		-0.00019856
Si		3.26148619		0.39137781		4.14727987		-0.00015290		-0.00005847		 0.00012008
Si		6.84851402		0.82182193		0.55272002		 0.00015290		 0.00005847		-0.00012008
Mg		5.40119955		3.49160020		0.00000000		0.00000000		0.00000000		0.00000000
Mg		0.00000000		0.00000000		2.34999995		0.00000000		0.00000000		0.00000000
Mg		0.34619996		2.88500033		2.34999995		0.00000000		0.00000000		0.00000000
Mg		5.05499960		0.60659987		2.34999995		0.00000000		0.00000000		0.00000000
Mg		2.68427107		1.75919522		2.34529969		 0.00017311		 0.00010023		-0.00019307
Mg		8.11812804		5.22400518		2.35470020		-0.00017311		-0.00010023		 0.00019307
Mg		7.77566711		2.37016340		2.35470020		-0.00021318		-0.00010467		-0.00002032
Mg		3.02673200		4.61303700		2.34529969		 0.00021318		 0.00010467		 0.00002032
O		3.53489429		3.26764255		0.98935002		-0.00021106		 0.00028122		-0.00018564
O		7.26750584		3.71555683		3.71064987		 0.00021106		-0.00028122		 0.00018564
O		2.00626213		3.08420730		3.64579020		-0.00027347		-0.00005495		 0.00017402
O		8.79613800		3.89899310		1.05420969		 0.00027347		 0.00005495		-0.00017402
O		8.39635451		1.00756250		1.09698040		 0.00019855		-0.00017724		-0.00037033
O		1.71364468		0.20563724		3.60301950		-0.00019855		 0.00017724		 0.00037033
O		3.36662999		0.40399601		1.08522976		-0.00000096		-0.00040745		-0.00004640
O		6.74337022		0.80920373		3.61477014		 0.00000096		 0.00040745		 0.00004640
O		1.04045411		1.60401955		1.07489042		-0.00009127		-0.00015692		 0.00027929
O		9.76194500		5.37917983		3.62510948		 0.00009127		 0.00015692		-0.00027929
O		9.42973176		2.61073385		3.62510948		-0.00013036		-0.00006918		 0.00003440
O		1.37266836		4.37246554		1.07489042		 0.00013036		 0.00006918		-0.00003440
O		6.15518851		2.03580674		1.03869966		-0.00036527		 0.00005451		-0.00038447
O		4.64721060		4.94739264		3.66130023		 0.00036527		-0.00005451		 0.00038447
O		4.27068401		1.80966697		3.66130023		-0.00024292		-0.00001285		-0.00011017
O		6.53171612		5.17353241		1.03869966		 0.00024292		 0.00001285		 0.00011017
