# total energy = -20631.2875256 eV

CRYSTAL
PRIMVEC
		10.11000334		-1.61760504		0.00000000
		-0.92320340		5.76999823		0.00000000
		0.00000000		0.00000000		4.70000416
PRIMECORD
   28 1
Si		8.05101986		1.52298102		4.11343945		 0.00008586		 0.00027290		 0.00052300
Si		1.13578008		2.62941934		0.58655959		-0.00008586		-0.00027290		-0.00052300
Si		3.26148537		-0.52183840		4.14728004		 0.00014881		-0.00016878		 0.00007942
Si		6.84851387		-1.09576152		0.55272003		-0.00014881		 0.00016878		-0.00007942
Mg		4.59339997		2.07619967		0.00000000		0.00000000		0.00000000		0.00000000
Mg		0.00000000		0.00000000		2.35000003		0.00000000		0.00000000		0.00000000
Mg		-0.46159965		2.88500014		2.35000003		0.00000000		0.00000000		0.00000000
Mg		5.05499962		-0.80880047		2.35000003		0.00000000		0.00000000		0.00000000
Mg		2.27600882		1.05659073		2.34529950		 0.00044487		 0.00019972		-0.00027922
Mg		6.91079009		3.09580963		2.35469955		-0.00044487		-0.00019972		 0.00027922
Mg		7.36740458		0.24196654		2.35469955		-0.00060450		-0.00035184		 0.00016184
Mg		1.81939536		3.91043279		2.34529950		 0.00060450		 0.00035184		-0.00016184
O		2.72709344		2.37480916		0.98934981		-0.00027352		 0.00034106		-0.00047223
O		6.45970547		1.77759120		3.71065026		 0.00027352		-0.00034106		 0.00047223
O		1.19846175		2.61938962		3.64578982		 0.00006863		 0.00060838		 0.00032014
O		7.98833717		1.53300971		1.05421025		-0.00006863		-0.00060838		-0.00032014
O		8.39635418		-1.34341663		1.09697992		 0.00044505		 0.00023874		-0.00018992
O		1.71364506		-0.27418329		3.60302015		-0.00044505		-0.00023874		 0.00018992
O		3.36662955		-0.53866142		1.08523011		 0.00059612		 0.00039116		-0.00039367
O		6.74336970		-1.07893850		3.61476996		-0.00059612		-0.00039116		 0.00039367
O		0.62023739		1.36311875		1.07489016		 0.00003519		-0.00046399		 0.00049621
O		8.56656255		2.78928059		3.62510991		-0.00003519		 0.00046399		-0.00049621
O		9.00951363		0.02083451		3.62510991		 0.00002543		 0.00026858		-0.00037094
O		0.17728528		4.13156483		1.07489016		-0.00002543		-0.00026858		 0.00037094
O		5.78666973		0.35657732		1.03869981		-0.00069420		 0.00027097		-0.00014746
O		3.40013021		3.79582304		3.66130025		 0.00069420		-0.00027097		 0.00014746
O		3.90216615		0.65809662		3.66130025		 0.00092501		 0.00056885		 0.00046558
O		5.28463378		3.49430271		1.03869981		-0.00092501		-0.00056885		-0.00046558
