# total energy = -20631.2875257 eV

CRYSTAL
PRIMVEC
		10.11000334		1.61760504		0.00000000
		0.92320340		5.76999823		0.00000000
		0.00000000		0.00000000		4.70000416
PRIMECORD
   28 1
Si		8.97421917		4.24701926		4.11343945		 0.00008594		-0.00027274		 0.00052282
Si		2.05898041		3.14058094		0.58655959		-0.00008594		 0.00027274		-0.00052282
Si		3.26148537		0.52183840		4.14728004		 0.00014893		 0.00016869		 0.00007942
Si		6.84851387		1.09576152		0.55272003		-0.00014893		-0.00016869		-0.00007942
Mg		5.51659928		3.69379959		0.00000000		0.00000000		0.00000000		0.00000000
Mg		0.00000000		0.00000000		2.35000003		0.00000000		0.00000000		0.00000000
Mg		0.46159965		2.88500014		2.35000003		0.00000000		0.00000000		0.00000000
Mg		5.05499962		0.80880047		2.35000003		0.00000000		0.00000000		0.00000000
Mg		2.74259466		1.85956646		2.34529950		 0.00060445		-0.00035166		-0.00016189
Mg		8.29060491		5.52803271		2.35469955		-0.00060445		 0.00035166		 0.00016189
Mg		7.83398940		2.67419065		2.35469955		-0.00044514		 0.00019942		 0.00027912
Mg		3.19920915		4.71340853		2.34529950		 0.00044514		-0.00019942		-0.00027912
O		3.65029377		3.39519112		0.98934981		-0.00027338		-0.00034100		-0.00047197
O		7.38290580		3.99240908		3.71065026		 0.00027338		 0.00034100		 0.00047197
O		2.12166208		3.15060963		3.64578982		 0.00006846		-0.00060828		 0.00031999
O		8.91153750		4.23698954		1.05421025		-0.00006846		 0.00060828		-0.00031999
O		8.39635418		1.34341663		1.09697992		 0.00044485		-0.00023875		-0.00018992
O		1.71364506		0.27418329		3.60302015		-0.00044485		 0.00023875		 0.00018992
O		3.36662955		0.53866142		1.08523011		 0.00059597		-0.00039132		-0.00039380
O		6.74336970		1.07893850		3.61476996		-0.00059597		 0.00039132		 0.00039380
O		1.10048458		1.63843443		1.07489016		-0.00002539		 0.00026872		 0.00037093
O		9.93271397		5.74916475		3.62510991		 0.00002539		-0.00026872		-0.00037093
O		9.48976288		2.98071867		3.62510991		-0.00003494		-0.00046370		-0.00049615
O		1.54343669		4.40688051		1.07489016		 0.00003494		 0.00046370		 0.00049615
O		6.20783412		2.27569654		1.03869981		-0.00092489		 0.00056862		-0.00046566
O		4.82536546		5.11190263		3.66130025		 0.00092489		-0.00056862		 0.00046566
O		4.32332849		1.97417724		3.66130025		 0.00069399		 0.00027091		 0.00014745
O		6.70987006		5.41342296		1.03869981		-0.00069399		-0.00027091		-0.00014745
