# total energy = -20632.6080486 eV

CRYSTAL
PRIMVEC
		10.10999695		0.80879773		0.00000000
		0.46159637		5.76999514		0.00000000
		0.00000000		0.00000000		4.70000276
PRIMECORD
   28 1
Si		8.74341937		3.56600941		4.11344007		-0.00013389		-0.00000028		-0.00001749
Si		1.82818003		3.01278954		0.58655965		 0.00013389		 0.00000028		 0.00001749
Si		3.26148584		0.26091879		4.14727985		 0.00019306		 0.00004431		 0.00049423
Si		6.84851415		0.54788097		0.55271986		-0.00019306		-0.00004431		-0.00049423
Mg		5.28579970		3.28939948		0.00000000		0.00000000		0.00000000		0.00000000
Mg		0.00000000		0.00000000		2.35000036		0.00000000		0.00000000		0.00000000
Mg		0.23080021		2.88499960		2.35000036		0.00000000		0.00000000		0.00000000
Mg		5.05499949		0.40439988		2.35000036		0.00000000		0.00000000		0.00000000
Mg		2.62594801		1.65882289		2.34530042		 0.00033674		 0.00017254		 0.00050178
Mg		7.94565038		4.91997708		2.35470031		-0.00033674		-0.00017254		-0.00050178
Mg		7.71734416		2.06613462		2.35470031		 0.00035072		-0.00057593		 0.00056754
Mg		2.85425626		4.51266534		2.34530042		-0.00035072		 0.00057593		-0.00056754
O		3.41949375		3.14009569		0.98934994		 0.00016035		 0.00078545		 0.00016073
O		7.15210565		3.43870428		3.71064977		-0.00016035		-0.00078545		-0.00016073
O		1.89086148		3.01780490		3.64578976		-0.00030697		-0.00011761		 0.00011855
O		8.68073792		3.56099506		1.05420995		 0.00030697		 0.00011761		-0.00011855
O		8.39635493		0.67170831		1.09698003		-0.00035232		 0.00052295		 0.00000225
O		1.71364507		0.13709246		3.60301968		 0.00035232		-0.00052295		-0.00000225
O		3.36663005		0.26932980		1.08523018		-0.00016316		-0.00038737		 0.00033691
O		6.74336994		0.53946996		3.61476954		 0.00016316		 0.00038737		-0.00033691
O		0.98042269		1.56960615		1.07489010		-0.00002317		 0.00010505		 0.00026291
O		9.59117671		5.00919382		3.62510961		 0.00002317		-0.00010505		-0.00026291
O		9.36970032		2.24074751		3.62510961		-0.00027492		-0.00018516		-0.00019683
O		1.20189908		4.33805145		1.07489010		 0.00027492		 0.00018516		 0.00019683
O		6.10254291		1.79591738		1.03870035		 0.00061597		 0.00009190		 0.00013173
O		4.46905649		4.78288259		3.66130038		-0.00061597		-0.00009190		-0.00013173
O		4.21803862		1.64515716		3.66130038		 0.00044304		 0.00005183		 0.00021468
O		6.35356078		4.93364281		1.03870035		-0.00044304		-0.00005183		-0.00021468
