# total energy = -11146.2778296 eV	

CRYSTAL	
PRIMVEC	
		7.44099980		0.00000000		0.00000000	
		0.00000000		4.40999782		0.00000000	
		0.00000000		0.00000000		8.91390106	
PRIMCOORD
   12 1	
Ca		0.14547229		1.10250020		6.06742398		 0.00091536		-0.00000000		-0.00051274	
Ca		7.29552751		3.30749985		2.84647485		-0.00091536		0.00000000		 0.00051274	
Ca		3.57502761		3.30749985		1.61047419		-0.00091536		-0.00000000		-0.00051274	
Ca		3.86597219		1.10250020		7.30342464		 0.00091536		0.00000000		 0.00051274	
Si		2.01346014		1.10250020		3.43720020		 0.00083215		0.00000000		-0.00088204	
Si		5.42753966		3.30749985		5.47670012		-0.00083215		-0.00000000		 0.00088204	
Si		1.70703976		3.30749985		7.89414850		-0.00083215		0.00000000		-0.00088204	
Si		5.73396003		1.10250020		1.01975033		 0.00083215		0.00000000		 0.00088204	
Mg		1.07254571		1.10250020		0.56888527		 0.00004112		0.00000000		 0.00006876	
Mg		6.36845409		3.30749985		8.34501505		-0.00004112		0.00000000		-0.00006876	
Mg		2.64795419		3.30749985		5.02583506		-0.00004112		0.00000000		 0.00006876	
Mg		4.79304561		1.10250020		3.88806526		 0.00004112		-0.00000000		-0.00006876	
