# total energy = -11146.3831667 eV	

CRYSTAL	
PRIMVEC	
		7.44099980		0.00000000		0.00000000	
		0.00000000		4.40999782		0.00000000	
		0.00000000		0.00000000		7.67010074	
PRIMCOORD
   12 1	
Ca		0.14547229		1.10250020		5.22080711		 0.00057834		-0.00000000		 0.00075733	
Ca		7.29552751		3.30749985		2.44929289		-0.00057834		0.00000000		-0.00075733	
Ca		3.57502761		3.30749985		1.38575674		-0.00057834		0.00000000		 0.00075733	
Ca		3.86597219		1.10250020		6.28434251		 0.00057834		0.00000000		-0.00075733	
Si		2.01346014		1.10250020		2.95758982		 0.00034506		0.00000000		-0.00012552	
Si		5.42753966		3.30749985		4.71251018		-0.00034506		0.00000000		 0.00012552	
Si		1.70703976		3.30749985		6.79264019		-0.00034506		0.00000000		-0.00012552	
Si		5.73396003		1.10250020		0.87745907		 0.00034506		0.00000000		 0.00012552	
Mg		1.07254571		1.10250020		0.48950617		-0.00030234		0.00000000		 0.00019607	
Mg		6.36845409		3.30749985		7.18059382		 0.00030234		0.00000000		-0.00019607	
Mg		2.64795419		3.30749985		4.32455580		 0.00030234		-0.00000000		 0.00019607	
Mg		4.79304561		1.10250020		3.34554420		-0.00030234		0.00000000		-0.00019607	
