# total energy = -24715.2107605 eV

CRYSTAL
PRIMVEC
		9.19694998		0.00000000		0.00000000
		0.00000000		8.73899705		0.00000000
		1.53369258		0.00000000		4.94514482
PRIMECORD
   40 1
Si		2.23963206		3.58299008		0.99397508		 0.00060571		 0.00022269		 0.00008452
Si		8.49101141		5.15600973		3.95117158		-0.00060571		-0.00022269		-0.00008452
Si		3.12569013		7.95248952		1.47859917		-0.00060571		 0.00022269		-0.00008452
Si		7.60495242		0.78651029		3.46654841		 0.00060571		-0.00022269		 0.00008452
Si		7.72416420		3.58299008		1.47859917		-0.00062790		-0.00008306		-0.00026492
Si		3.00647835		5.15600973		3.46654841		 0.00062790		 0.00008306		 0.00026492
Si		6.83810613		7.95248952		0.99397508		 0.00062790		-0.00008306		 0.00026492
Si		3.89253642		0.78651029		3.95117158		-0.00062790		 0.00008306		-0.00026492
O		3.83214925		3.67038042		0.49451540		 0.00072896		 0.00038535		 0.00008006
O		6.89849331		5.06862123		4.45063218		-0.00072896		-0.00038535		-0.00008006
O		1.53317203		8.03987986		1.97805885		-0.00072896		 0.00038535		-0.00008006
O		9.19746961		0.69911995		2.96708781		 0.00072896		-0.00038535		 0.00008006
O		8.17162801		2.18475018		0.78627760		 0.00037776		-0.00009367		-0.00071408
O		2.55901362		6.55424963		4.15886906		-0.00037776		 0.00009367		 0.00071408
O		6.39064325		6.55424963		1.68629481		-0.00037776		-0.00009367		 0.00071408
O		4.33999931		2.18475018		3.25885185		 0.00037776		 0.00009367		-0.00071408
O		2.83654998		4.28211003		4.69788942		 0.00004977		-0.00001850		-0.00074836
O		7.89409165		4.45688978		0.24725724		-0.00004977		 0.00001850		 0.00074836
O		4.06246295		8.65161039		2.71983057		-0.00004977		-0.00001850		 0.00074836
O		6.66817869		0.08739034		2.22531609		 0.00004977		 0.00001850		-0.00074836
O		8.66093794		4.28211003		2.71983057		 0.00022915		 0.00027784		 0.00047386
O		2.06970370		4.45688978		2.22531609		-0.00022915		-0.00027784		-0.00047386
O		7.43502497		8.65161039		4.69788942		-0.00022915		 0.00027784		-0.00047386
O		3.29561666		0.08739034		0.24725724		 0.00022915		-0.00027784		 0.00047386
O		1.79216826		2.18475018		1.68629481		 0.00007991		-0.00019146		 0.00028250
O		8.93847430		6.55424963		3.25885185		-0.00007991		 0.00019146		-0.00028250
O		3.57315302		6.55424963		0.78627760		-0.00007991		-0.00019146		-0.00028250
O		7.15748861		2.18475018		4.15886814		 0.00007991		 0.00019146		 0.00028250
O		6.13164702		3.67038042		1.97805885		-0.00050155		 0.00031638		-0.00057371
O		4.59899462		5.06862123		2.96708781		 0.00050155		-0.00031638		 0.00057371
O		8.43062424		8.03987986		0.49451540		 0.00050155		 0.00031638		 0.00057371
O		2.30001832		0.69911995		4.45063218		-0.00050155		-0.00031638		-0.00057371
Mg		0.38342268		0.79524923		1.23628713		-0.00005761		 0.00015184		 0.00022110
Mg		1.15026897		7.94375058		3.70885954		 0.00005761		-0.00015184		-0.00022110
Mg		4.98189767		5.16474867		1.23628713		 0.00005761		 0.00015184		-0.00022110
Mg		5.74874396		3.57425114		3.70885954		-0.00005761		-0.00015184		 0.00022110
Mg		0.30673760		6.02991036		0.98902896		 0.00039227		-0.00041676		-0.00015519
Mg		1.22695406		2.70909037		3.95611678		-0.00039227		 0.00041676		 0.00015519
Mg		5.05858276		1.66040999		1.48354437		-0.00039227		-0.00041676		 0.00015519
Mg		5.67205887		7.07858982		3.46160321		 0.00039227		 0.00041676		-0.00015519
