# total energy = -24714.1578464 eV

CRYSTAL
PRIMVEC
		8.95492497		0.00000000		0.00000000
		0.00000000		8.73900381		0.00000000
		1.49333224		0.00000000		4.94515135
PRIMECORD
   40 1
Si		2.18069437		3.58298995		0.99397518		 0.00043172		 0.00011546		-0.00008042
Si		8.26756283		5.15601028		3.95117169		-0.00043172		-0.00011546		 0.00008042
Si		3.04343513		7.95249007		1.47859870		-0.00043172		 0.00011546		 0.00008042
Si		7.40482208		0.78651016		3.46654817		 0.00043172		-0.00011546		-0.00008042
Si		7.52089671		3.58298995		1.47859870		-0.00054403		-0.00015838		-0.00023654
Si		2.92735960		5.15601028		3.46654817		 0.00054403		 0.00015838		 0.00023654
Si		6.65815596		7.95249007		0.99397518		 0.00054403		-0.00015838		 0.00023654
Si		3.79010125		0.78651016		3.95117169		-0.00054403		 0.00015838		-0.00023654
O		3.73130321		3.67038017		0.49451513		 0.00079525		 0.00055183		 0.00036996
O		6.71695400		5.06862096		4.45063174		-0.00079525		-0.00055183		-0.00036996
O		1.49282539		8.03988029		1.97805875		-0.00079525		 0.00055183		-0.00036996
O		8.95543092		0.69911995		2.96708812		 0.00079525		-0.00055183		 0.00036996
O		7.95658516		2.18475006		0.78627823		 0.00067117		-0.00016287		-0.00070371
O		2.49167205		6.55425017		4.15886864		-0.00067117		 0.00016287		 0.00070371
O		6.22246841		6.55425017		1.68629476		-0.00067117		-0.00016287		 0.00070371
O		4.22578790		2.18475006		3.25885212		 0.00067117		 0.00016287		-0.00070371
O		2.76190393		4.28210990		4.69788886		-0.00022745		-0.00005703		-0.00076148
O		7.68635328		4.45689033		0.24725712		 0.00022745		 0.00005703		 0.00076148
O		3.95555602		8.65161002		2.71983100		 0.00022745		-0.00005703		 0.00076148
O		6.49270029		0.08739022		2.22531587		-0.00022745		 0.00005703		-0.00076148
O		8.43301940		4.28210990		2.71983100		 0.00031601		 0.00040358		 0.00027645
O		2.01523781		4.45689033		2.22531587		-0.00031601		-0.00040358		-0.00027645
O		7.23936641		8.65161002		4.69788886		-0.00031601		 0.00040358		-0.00027645
O		3.20888990		0.08739022		0.24725712		 0.00031601		-0.00040358		 0.00027645
O		1.74500593		2.18475006		1.68629476		-0.00009344		-0.00021808		 0.00037768
O		8.70325128		6.55425017		3.25885212		 0.00009344		 0.00021808		-0.00037768
O		3.47912178		6.55425017		0.78627823		 0.00009344		-0.00021808		-0.00037768
O		6.96913364		2.18475006		4.15886774		-0.00009344		 0.00021808		 0.00037768
O		5.97028788		3.67038017		1.97805875		-0.00056937		 0.00043784		-0.00067803
O		4.47796933		5.06862096		2.96708812		 0.00056937		-0.00043784		 0.00067803
O		8.20876480		8.03988029		0.49451513		 0.00056937		 0.00043784		 0.00067803
O		2.23949062		0.69911995		4.45063174		-0.00056937		-0.00043784		-0.00067803
Mg		0.37333261		0.79524928		1.23628739		-0.00009098		-0.00000967		 0.00020931
Mg		1.11999873		7.94375096		3.70886038		 0.00009098		 0.00000967		-0.00020931
Mg		4.85079510		5.16474939		1.23628739		 0.00009098		-0.00000967		-0.00020931
Mg		5.59746122		3.57425084		3.70886038		-0.00009098		 0.00000967		 0.00020931
Mg		0.29866555		6.02990977		0.98902937		 0.00033659		-0.00056611		 0.00010671
Mg		1.19466579		2.70908957		3.95611660		-0.00033659		 0.00056611		-0.00010671
Mg		4.92546216		1.66040965		1.48354361		-0.00033659		-0.00056611		-0.00010671
Mg		5.52279505		7.07858969		3.46160326		 0.00033659		 0.00056611		 0.00010671
