# total energy = -4139.19174994 eV

CRYSTAL
PRIMVEC
		3.34196325		0.00000000		0.00000000
		-1.67098162		2.89422448		0.00000000
		0.00000000		0.00000000		5.21542776
PRIMECORD
   4 1
Mg		0.00000000		1.92948354		0.04189742		-0.00000000		-0.00000001		 0.00006248
Mg		1.67098096		0.96474160		2.64961064		 0.00000001		-0.00000002		 0.00006418
O		0.00000000		1.92948354		2.06826539		-0.00000001		 0.00000002		-0.00006398
O		1.67098096		0.96474160		4.67597728		 0.00000001		 0.00000001		-0.00006270
