# total energy = -4139.1340219 eV

CRYSTAL
PRIMVEC
		3.36863063		0.00000000		0.00000000
		-1.68431531		2.91731945		0.00000000
		0.00000000		0.00000000		5.28319440
PRIMECORD
   4 1
Mg		0.00000000		1.94487997		0.04641487		-0.00000003		 0.00000011		 0.00013966
Mg		1.68431498		0.97244015		2.68801273		 0.00000006		-0.00000016		 0.00013853
O		0.00000000		1.94487964		2.09116421		-0.00000007		 0.00000015		-0.00013939
O		1.68431498		0.97244015		4.73276074		 0.00000004		-0.00000011		-0.00013880
