# total energy = -41271.2943723 eV	

CRYSTAL	
PRIMVEC	
		7.51099989		0.00000000		0.00000000	
		0.00000000		8.11999927		0.00000000	
		0.00000000		0.00000000		8.11999927	
PRIMCOORD
   56 1	
Si		0.93887499		1.01499972		1.01499972		-0.00000016		 0.00000036		 0.00000036	
Si		6.57212490		7.10499955		7.10499955		 0.00000016		-0.00000036		-0.00000036	
Si		4.69437493		1.01499972		5.07500011		 0.00000015		 0.00000032		-0.00000029	
Si		2.81662496		7.10499955		3.04499991		-0.00000015		-0.00000032		 0.00000029	
Si		0.93887499		5.07500011		5.07500011		-0.00000015		-0.00000024		-0.00000024	
Si		6.57212490		3.04499991		3.04499991		 0.00000015		 0.00000024		 0.00000024	
Si		4.69437493		5.07500011		1.01499972		 0.00000015		-0.00000029		 0.00000032	
Si		2.81662496		3.04499991		7.10499955		-0.00000015		 0.00000029		-0.00000032	
Mg		3.75549994		4.05999963		4.05999963		0.00000000		0.00000000		0.00000000	
Mg		1.87774997		6.08999983		0.00000000		-0.00000007		-0.00000011		 0.00000004	
Mg		5.63324991		2.03000019		0.00000000		 0.00000007		 0.00000011		-0.00000004	
Mg		5.63324991		0.00000000		2.03000019		 0.00000007		-0.00000004		 0.00000011	
Mg		1.87774997		0.00000000		6.08999983		-0.00000007		 0.00000004		-0.00000011	
Mg		0.00000000		2.03000019		6.08999983		0.00000000		 0.00000008		-0.00000008	
Mg		0.00000000		6.08999983		2.03000019		0.00000000		-0.00000008		 0.00000008	
Mg		3.75549994		0.00000000		0.00000000		0.00000000		0.00000000		0.00000000	
Mg		1.87774997		2.03000019		4.05999963		-0.00000006		 0.00000004		 0.00000003	
Mg		5.63324991		6.08999983		4.05999963		 0.00000006		-0.00000004		-0.00000003	
Mg		5.63324991		4.05999963		6.08999983		 0.00000006		-0.00000003		-0.00000004	
Mg		1.87774997		4.05999963		2.03000019		-0.00000006		 0.00000003		 0.00000004	
Mg		0.00000000		4.05999963		0.00000000		0.00000000		0.00000000		0.00000000	
Mg		3.75549994		2.03000019		2.03000019		-0.00000001		 0.00000009		 0.00000009	
Mg		3.75549994		6.08999983		6.08999983		 0.00000001		-0.00000009		-0.00000009	
Mg		0.00000000		0.00000000		4.05999963		0.00000000		0.00000000		0.00000000	
O		1.81465832		1.96179205		1.96179205		-0.00002278		-0.00000951		-0.00000951	
O		5.69634156		6.15820797		6.15820797		 0.00002278		 0.00000951		 0.00000951	
O		3.81859159		0.06820814		6.02179169		 0.00002262		 0.00000928		-0.00000918	
O		3.69240830		8.05179188		2.09820833		-0.00002262		-0.00000928		 0.00000918	
O		0.06309165		6.02179169		4.12820778		 0.00002276		-0.00000944		 0.00000945	
O		7.44790824		2.09820833		3.99179224		-0.00002276		 0.00000944		-0.00000945	
O		5.57015827		4.12820778		0.06820814		-0.00002289		 0.00000941		 0.00000944	
O		1.94084162		3.99179224		8.05179188		 0.00002289		-0.00000941		-0.00000944	
O		7.44790824		3.99179224		2.09820833		-0.00002276		-0.00000945		 0.00000944	
O		0.06309165		4.12820778		6.02179169		 0.00002276		 0.00000945		-0.00000944	
O		3.69240830		2.09820833		8.05179188		-0.00002262		 0.00000918		-0.00000928	
O		3.81859159		6.02179169		0.06820814		 0.00002262		-0.00000918		 0.00000928	
O		1.94084162		8.05179188		3.99179224		 0.00002289		-0.00000944		-0.00000941	
O		5.57015827		0.06820814		4.12820778		-0.00002289		 0.00000944		 0.00000941	
O		1.81465832		6.02179169		6.02179169		-0.00002256		-0.00000924		-0.00000924	
O		5.69634156		2.09820833		2.09820833		 0.00002256		 0.00000924		 0.00000924	
O		3.81859159		4.12820778		1.96179205		 0.00002285		 0.00000947		-0.00000945	
O		3.69240830		3.99179224		6.15820797		-0.00002285		-0.00000947		 0.00000945	
O		0.06309165		1.96179205		0.06820814		 0.00002275		-0.00000946		 0.00000946	
O		7.44790824		6.15820797		8.05179188		-0.00002275		 0.00000946		-0.00000946	
O		7.44790824		8.05179188		6.15820797		-0.00002275		-0.00000946		 0.00000946	
O		0.06309165		0.06820814		1.96179205		 0.00002275		 0.00000946		-0.00000946	
O		3.69240830		6.15820797		3.99179224		-0.00002285		 0.00000945		-0.00000947	
O		3.81859159		1.96179205		4.12820778		 0.00002285		-0.00000945		 0.00000947	
O		5.57015827		1.96179205		6.02179169		-0.00002291		-0.00000944		-0.00000939	
O		1.94084162		6.15820797		2.09820833		 0.00002291		 0.00000944		 0.00000939	
O		1.81465832		4.12820778		4.12820778		-0.00002278		 0.00000948		 0.00000948	
O		5.69634156		3.99179224		3.99179224		 0.00002278		-0.00000948		-0.00000948	
O		5.69634156		8.05179188		8.05179188		 0.00002250		-0.00000929		-0.00000929	
O		1.81465832		0.06820814		0.06820814		-0.00002250		 0.00000929		 0.00000929	
O		5.57015827		6.02179169		1.96179205		-0.00002291		-0.00000939		-0.00000944	
O		1.94084162		2.09820833		6.15820797		 0.00002291		 0.00000939		 0.00000944	
