# total energy = -9139.01731059 eV	

CRYSTAL	
PRIMVEC	
		5.33300163		0.00000000		0.85328264	
		-2.66649811		4.61851494		-0.42663862	
		1.17183983		0.00000000		7.32400165	
PRIMCOORD
   14 1	
Mg		2.30864771		0.00000000		3.62362954		 0.00005781		0.00000000		 0.00023742	
Mg		-0.35278604		1.53658007		3.19780105		-0.00003546		 0.00018469		 0.00030387	
Mg		2.31371477		3.08193379		3.62444075		-0.00003546		-0.00018469		 0.00030387	
Si		0.09023222		3.07900870		0.56394772		-0.00019989		 0.00021279		-0.00022486	
Si		2.75673195		1.53950516		0.99058795		-0.00019989		-0.00021279		-0.00022486	
O		0.34194279		3.07900870		2.13714272		-0.00006830		 0.00037953		-0.00027290	
O		3.00844306		1.53950516		2.56378295		-0.00006830		-0.00037953		-0.00027290	
O		3.83546956		0.00000000		7.70022459		 0.00047116		0.00000000		 0.00049740	
O		-0.17227894		2.31387464		7.05898451		-0.00002524		 0.00028675		 0.00006084	
O		2.49422080		2.30463760		7.48562474		-0.00002524		-0.00028675		 0.00006084	
O		4.22417491		0.00000000		4.90067863		-0.00020926		-0.00000000		 0.00036801	
O		-1.07149402		3.05745560		4.05337148		 0.00023319		-0.00000565		-0.00034753	
O		1.59500572		1.56105771		4.48001171		 0.00023319		 0.00000565		-0.00034753	
O		0.35506789		0.00000000		2.21917161		-0.00012831		-0.00000000		-0.00014167	
