# total energy = -9138.94882736 eV	

CRYSTAL	
PRIMVEC	
		5.33300036		0.00000000		0.21331980	
		-2.66649751		4.61851673		-0.10665990	
		0.29296247		0.00000000		7.32399762	
PRIMCOORD
   14 1	
Mg		1.90787897		0.00000000		3.41071611		 0.00070583		0.00000000		-0.00029070	
Mg		-0.75355508		1.53657987		3.30425796		-0.00004175		 0.00005424		-0.00012673	
Mg		1.91294510		3.08193419		3.41091786		-0.00004175		-0.00005424		-0.00012673	
Si		0.02255795		3.07900884		0.56394821		-0.00020054		-0.00002951		-0.00004361	
Si		2.68905813		1.53950522		0.67060811		-0.00020054		 0.00002951		-0.00004361	
O		0.08548590		3.07900884		2.13714332		 0.00033380		 0.00029451		 0.00002670	
O		2.75198608		1.53950522		2.24380322		 0.00033380		-0.00029451		 0.00002670	
O		2.96274186		0.00000000		7.37960498		-0.00016950		0.00000000		 0.00023474	
O		-1.04500710		2.31387510		7.21929543		-0.00021450		 0.00024162		-0.00017772	
O		1.62149308		2.30463789		7.32595533		-0.00021450		-0.00024162		-0.00017772	
O		3.70387819		0.00000000		4.47702637		-0.00007858		0.00000000		 0.00023637	
O		-1.59179120		3.05745590		4.26519887		 0.00004323		 0.00008419		 0.00015752	
O		1.07470898		1.56105816		4.37185930		 0.00004323		-0.00008419		 0.00015752	
O		0.08876725		0.00000000		2.21917227		-0.00029822		-0.00000000		 0.00014726	
