# total energy = -10313.9571818 eV

CRYSTAL
PRIMVEC
		3.57209901		0.00000000		0.00000000
		0.00000000		3.57209901		0.00000000
		0.00000000		0.00000000		10.81328184
PRIMECORD
   14 1
Si		0.00000000		0.00000000		0.00000000		0.00000000		 0.00000001		 0.00000003
Si		1.78604915		1.78604915		5.40664092		 0.00000001		0.00000000		-0.00000004
Mg		0.00000000		0.00000000		3.78372780		-0.00000001		 0.00000001		-0.00054377
Mg		0.00000000		0.00000000		7.02955404		0.00000000		 0.00000002		 0.00054352
Mg		1.78604915		1.78604950		9.18934029		-0.00000002		 0.00000002		 0.00012038
Mg		1.78604915		1.78604915		1.62394050		-0.00000001		-0.00000001		-0.00012019
O		0.00000000		1.78604915		0.00000000		 0.00000003		 0.00000002		 0.00000008
O		1.78604915		0.00000000		0.00000000		 0.00000002		 0.00000004		 0.00000008
O		1.78604915		0.00000000		5.40664127		 0.00000001		-0.00000001		-0.00000012
O		0.00000000		1.78604880		5.40664092		0.00000000		-0.00000009		-0.00000007
O		0.00000000		0.00000000		1.79785750		-0.00000003		 0.00000001		-0.00010385
O		0.00000000		0.00000000		9.01542329		-0.00000000		-0.00000001		 0.00010399
O		1.78604915		1.78604915		7.20395682		 0.00000003		-0.00000001		-0.00010649
O		1.78604915		1.78604915		3.60932467		-0.00000003		-0.00000002		 0.00010644
