# total energy = -10314.1830234 eV

CRYSTAL
PRIMVEC
		3.44811177		0.00000000		0.00000000
		0.00000000		3.44811177		0.00000000
		0.00000000		0.00000000		10.62161829
PRIMECORD
   14 1
Si		0.00000000		0.00000000		0.00000000		-0.00000000		 0.00000001		 0.00000008
Si		1.72405588		1.72405588		5.31080879		-0.00000000		0.00000000		-0.00000007
Mg		0.00000000		0.00000000		3.71765134		 0.00000001		-0.00000001		-0.00003966
Mg		0.00000000		0.00000000		6.90396659		-0.00000001		 0.00000001		 0.00003928
Mg		1.72405588		1.72405623		9.02797084		-0.00000000		 0.00000001		 0.00002753
Mg		1.72405588		1.72405588		1.59364639		-0.00000000		-0.00000001		-0.00002716
O		0.00000000		1.72405588		0.00000000		 0.00000001		-0.00000001		-0.00000003
O		1.72405588		0.00000000		0.00000000		-0.00000001		 0.00000001		-0.00000005
O		1.72405588		0.00000000		5.31080879		 0.00000001		 0.00000001		 0.00000002
O		0.00000000		1.72405588		5.31080879		0.00000000		 0.00000001		 0.00000002
O		0.00000000		0.00000000		1.78185119		-0.00000003		-0.00000003		-0.00007898
O		0.00000000		0.00000000		8.83976604		 0.00000003		-0.00000000		 0.00007909
O		1.72405588		1.72405588		7.09247571		-0.00000003		 0.00000001		-0.00017211
O		1.72405588		1.72405588		3.52914187		 0.00000003		-0.00000001		 0.00017204
