# total energy = -10314.2200592 eV

CRYSTAL
PRIMVEC
		3.46453155		0.00000000		0.00000000
		0.00000000		3.46453155		0.00000000
		0.00000000		0.00000000		10.65307140
PRIMECORD
   14 1
Si		0.00000000		0.00000000		0.00000000		0.00000000		-0.00000001		 0.00000012
Si		1.73226507		1.73226507		5.32653570		0.00000000		0.00000000		-0.00000022
Mg		0.00000000		0.00000000		3.72791564		-0.00000001		-0.00000001		-0.00050225
Mg		0.00000000		0.00000000		6.92515506		-0.00000001		0.00000000		 0.00050204
Mg		1.73226472		1.73226507		9.05380058		-0.00000000		0.00000000		 0.00010410
Mg		1.73226507		1.73226507		1.59927012		-0.00000001		-0.00000001		-0.00010419
O		0.00000000		1.73226507		0.00000000		-0.00000001		-0.00000002		 0.00000002
O		1.73226507		0.00000000		0.00000000		-0.00000004		-0.00000001		0.00000000
O		1.73226507		0.00000000		5.32653570		 0.00000004		 0.00000001		-0.00000002
O		0.00000000		1.73226507		5.32653570		0.00000000		-0.00000000		 0.00000004
O		0.00000000		0.00000000		1.78489507		0.00000000		-0.00000002		-0.00004876
O		0.00000000		0.00000000		8.86817493		-0.00000000		 0.00000002		 0.00004906
O		1.73226507		1.73226507		7.11114119		0.00000000		-0.00000000		-0.00012213
O		1.73226507		1.73226507		3.54193021		 0.00000001		 0.00000005		 0.00012220
