# total energy = -10314.1727919 eV

CRYSTAL
PRIMVEC
		3.52270629		0.00000000		0.00000000
		0.00000000		3.52270629		0.00000000
		0.00000000		0.00000000		10.75088808
PRIMECORD
   14 1
Si		0.00000000		0.00000000		0.00000000		0.00000000		0.00000000		 0.00000006
Si		1.76135244		1.76135244		5.37544439		 0.00000001		0.00000000		-0.00000007
Mg		0.00000000		0.00000000		3.76121115		-0.00000000		 0.00000001		-0.00060406
Mg		0.00000000		0.00000000		6.98967728		 0.00000001		 0.00000002		 0.00060400
Mg		1.76135209		1.76135244		9.13574048		-0.00000001		 0.00000002		 0.00004936
Mg		1.76135244		1.76135209		1.61514760		-0.00000001		-0.00000000		-0.00004944
O		0.00000000		1.76135244		0.00000000		-0.00000002		0.00000000		 0.00000002
O		1.76135244		0.00000000		0.00000000		-0.00000000		0.00000000		 0.00000004
O		1.76135209		0.00000000		5.37544439		-0.00000001		0.00000000		-0.00000007
O		0.00000000		1.76135209		5.37544439		 0.00000001		-0.00000002		-0.00000005
O		0.00000000		0.00000000		1.79369534		 0.00000001		 0.00000001		-0.00020947
O		0.00000000		0.00000000		8.95719239		 0.00000001		-0.00000002		 0.00020954
O		1.76135244		1.76135209		7.16866869		-0.00000000		 0.00000002		-0.00023247
O		1.76135244		1.76135244		3.58221974		 0.00000001		-0.00000004		 0.00023260
