# total energy = -44003.8307545 eV

CRYSTAL
PRIMVEC
		11.18345770		0.00000000		0.63930887
		0.00000000		19.06691878		0.00000000
		-1.18304933		0.00000000		5.42335506
PRIMECORD
   82 1
Si		2.37919588		1.61499321		1.52382425		 0.00045949		 0.00012252		 0.00017981
Si		7.62113983		17.45192458		4.53880630		-0.00029451		-0.00012426		-0.00011730
Si		7.62113983		1.61498831		4.53880630		-0.00029335		 0.00012861		-0.00011633
Si		2.37919588		17.45192066		1.52382327		 0.00046076		-0.00011821		 0.00018083
Si		7.97068026		11.14854686		1.84347967		 0.00015880		 0.00002445		 0.00011732
Si		2.02973400		7.91836505		4.21918721		-0.00015587		-0.00000508		-0.00011348
Si		2.02973400		11.14854980		4.21918623		-0.00015573		 0.00000764		-0.00011291
Si		7.97068026		7.91836701		1.84347967		 0.00015894		-0.00002188		 0.00011788
Si		2.08740885		3.21479700		4.32683667		 0.00006581		 0.00029809		 0.00009043
Si		7.91303780		15.85213454		1.73584297		-0.00012208		-0.00034057		-0.00010764
Si		7.91303584		3.21478129		1.73584297		-0.00011835		 0.00033830		-0.00010711
Si		2.08740787		15.85211883		4.32683667		 0.00006953		-0.00030026		 0.00009095
Si		7.67871651		12.74993920		4.64653038		-0.00012735		 0.00015576		 0.00009742
Si		2.32170953		6.31697958		1.41614337		 0.00009620		-0.00015525		-0.00010750
Si		2.32170855		12.74993723		1.41614337		 0.00010100		 0.00015090		-0.00010687
Si		7.67871455		6.31697762		4.64653038		-0.00012251		-0.00016009		 0.00009806
O		2.71778433		2.33214802		2.99085432		-0.00045566		-0.00001690		 0.00017449
O		7.28262502		16.73476977		3.07181747		 0.00044498		 0.00000544		-0.00020013
O		7.28262502		2.33214508		3.07181747		 0.00044473		-0.00000507		-0.00020076
O		2.71778433		16.73476683		2.99085432		-0.00045594		 0.00001732		 0.00017374
O		8.30812491		11.86684252		3.31009345		-0.00038657		-0.00006224		 0.00042293
O		1.69229131		7.20007233		2.75257736		 0.00038549		 0.00005472		-0.00042805
O		1.69229131		11.86684252		2.75257736		 0.00038529		-0.00005389		-0.00042911
O		8.30812491		7.20007233		3.31009443		-0.00038678		 0.00006305		 0.00042188
O		0.78006364		1.77096098		1.17949129		-0.00003704		-0.00050930		-0.00004106
O		9.22040559		17.29596173		4.88316970		-0.00009849		 0.00050934		 0.00002031
O		9.22040559		1.77095312		4.88316970		-0.00009871		-0.00050986		 0.00002023
O		0.78006364		17.29595486		1.17949129		-0.00003727		 0.00050878		-0.00004116
O		6.37101393		11.30291625		1.49941376		 0.00026240		-0.00038630		-0.00005685
O		3.62940229		7.76400646		4.56325607		-0.00026939		 0.00037127		 0.00005981
O		3.62940229		11.30290839		4.56325509		-0.00026879		-0.00037145		 0.00005993
O		6.37101393		7.76399860		1.49941376		 0.00026301		 0.00038611		-0.00005673
O		3.19393375		4.40251087		4.51722830		-0.00013637		 0.00017256		 0.00006789
O		6.80646872		14.66438631		1.54543858		 0.00017632		-0.00013112		-0.00005886
O		6.80646971		4.40252854		1.54543858		 0.00017431		 0.00013313		-0.00005919
O		3.19393473		14.66440300		4.51722929		-0.00013832		-0.00017063		 0.00006758
O		8.78600918		13.93690591		4.83672467		-0.00008013		 0.00018430		 0.00016608
O		1.21439821		5.13000599		1.22594516		 0.00008783		-0.00017591		-0.00016421
O		1.21439919		13.93690886		1.22594614		 0.00008487		 0.00017906		-0.00016476
O		8.78601114		5.13000796		4.83672565		-0.00008307		-0.00018114		 0.00016552
O		2.74393064		0.00000000		1.62769869		-0.00057869		-0.00000421		 0.00014421
O		7.25648263		0.00000000		4.43497114		 0.00055697		-0.00000419		-0.00015394
O		8.33678267		9.53345841		1.94680626		-0.00065151		-0.00000281		 0.00022800
O		1.66362668		9.53345841		4.11586062		 0.00065176		-0.00000280		-0.00022822
O		0.47063269		3.49018600		3.98265196		 0.00006401		 0.00025045		 0.00019193
O		9.52978942		15.57675143		2.08002768		-0.00005309		-0.00025122		-0.00019003
O		9.52978942		3.49016342		2.08002866		-0.00005466		 0.00025110		-0.00019030
O		0.47063367		15.57672885		3.98265196		 0.00006234		-0.00025061		 0.00019164
O		6.06218482		13.02714158		4.30314976		 0.00014750		-0.00006226		 0.00014727
O		3.93821766		6.03977131		1.75951515		-0.00012751		 0.00005729		-0.00014301
O		3.93821864		13.02714256		1.75951613		-0.00012912		-0.00005714		-0.00014333
O		6.06218580		6.03977327		4.30315075		 0.00014586		 0.00006241		 0.00014693
O		0.17848436		0.00000000		3.84696622		 0.00024108		-0.00000034		 0.00042862
O		9.82170015		0.00000000		2.21561819		 0.00056180		-0.00000035		-0.00024636
O		5.77168984		9.53345743		4.16696233		 0.00030409		-0.00000018		 0.00038152
O		4.22841908		9.53345743		1.89564565		 0.00081925		-0.00000018		-0.00013159
O		3.27720119		2.27013165		0.30383175		-0.00016029		-0.00001144		-0.00000673
O		6.72322387		16.79678615		5.75884299		 0.00014894		 0.00000828		 0.00000840
O		6.72322387		2.27012870		5.75884299		 0.00014882		-0.00000811		 0.00000853
O		3.27720119		16.79678320		0.30383175		-0.00016045		 0.00001167		-0.00000651
O		8.86772341		11.80502152		0.62360498		-0.00005412		-0.00001598		-0.00017581
O		1.13269281		7.26189431		5.43906190		 0.00005171		 0.00000728		 0.00018105
O		1.13269281		11.80502054		5.43906092		 0.00005144		-0.00000650		 0.00018182
O		8.86772341		7.26189333		0.62360498		-0.00005441		 0.00001677		-0.00017503
Ca		-0.59152074		5.23814144		2.71168342		 0.00000408		-0.00026382		 0.00000114
Ca		-0.59152074		13.82877439		2.71168342		 0.00000409		 0.00026316		 0.00000114
Ca		5.00020615		14.77376276		3.03133688		-0.00000176		-0.00024841		-0.00000221
Ca		5.00020615		4.29315308		3.03133688		-0.00000175		 0.00024786		-0.00000222
Mg		0.00000000		0.00000000		-0.00001571		-0.00001898		 0.00000056		 0.00000088
Mg		5.59173572		9.53345743		0.31964953		-0.00002506		 0.00000024		 0.00001331
Mg		0.00001178		3.53751662		0.00000000		-0.00000007		-0.00039893		-0.00000475
Mg		0.00001178		15.52939922		0.00000000		-0.00000007		 0.00039905		-0.00000474
Mg		5.59172885		13.07196566		0.31965542		-0.00000135		-0.00021167		-0.00000097
Mg		5.59172885		5.99494919		0.31965542		-0.00000134		 0.00021155		-0.00000097
Mg		-0.59152761		1.65046368		2.71166575		-0.00000797		 0.00062396		 0.00000066
Mg		-0.59152761		17.41645215		2.71166575		-0.00000797		-0.00062317		 0.00000067
Mg		5.00020811		11.18263397		3.03133393		-0.00001327		 0.00050531		-0.00000503
Mg		5.00020811		7.88428186		3.03133393		-0.00001327		-0.00050489		-0.00000503
H		1.11789905		0.00000000		4.07442571		-0.00049686		 0.00000009		-0.00001319
H		8.88269880		0.00000000		1.98831578		-0.00025151		 0.00000009		-0.00017421
H		6.71127634		9.53345743		4.39429320		-0.00077363		 0.00000008		-0.00008988
H		3.28943245		9.53345743		1.66845419		-0.00028248		 0.00000008		-0.00016676
