# total energy = -44011.6067425 eV

CRYSTAL
PRIMVEC
		10.35978643		0.00000000		0.24339803
		0.00000000		18.43726100		0.00000000
		-1.27956027		0.00000000		5.26951683
PRIMECORD
   82 1
Si		2.39090679		1.56162650		1.50506991		-0.00016601		 0.00011204		 0.00007246
Si		6.68931544		16.87563647		4.00784691		 0.00017454		-0.00011317		-0.00007053
Si		6.68931544		1.56162846		4.00784691		 0.00017396		 0.00010671		-0.00007086
Si		2.39090679		16.87563745		1.50506991		-0.00016659		-0.00011843		 0.00007214
Si		7.57064684		10.78014507		1.62660104		 0.00033187		 0.00002909		 0.00020599
Si		1.50957637		7.65711691		3.88631677		-0.00033137		-0.00002716		-0.00020654
Si		1.50957637		10.78014409		3.88631677		-0.00033179		 0.00003315		-0.00020646
Si		7.57064783		7.65711593		1.62660104		 0.00033146		-0.00002303		 0.00020607
Si		1.90326834		3.14947687		4.19947071		 0.00030666		 0.00034961		 0.00024985
Si		7.17695683		15.28778512		1.31344710		-0.00030632		-0.00034649		-0.00025045
Si		7.17695683		3.14947687		1.31344710		-0.00030597		 0.00034575		-0.00025045
Si		1.90326834		15.28778610		4.19947071		 0.00030690		-0.00035028		 0.00024982
Si		7.08320279		12.36755461		4.32097434		 0.00012236		 0.00003412		 0.00025892
Si		1.99702238		6.06970933		1.19194346		-0.00012249		-0.00003841		-0.00025881
Si		1.99702337		12.36755265		1.19194346		-0.00012459		 0.00004023		-0.00025909
Si		7.08320377		6.06970737		4.32097434		 0.00012018		-0.00003225		 0.00025862
O		2.70222280		2.28040717		2.96947857		-0.00023287		 0.00023508		 0.00011745
O		6.37800238		16.15685678		2.54343923		 0.00023216		-0.00023724		-0.00011957
O		6.37800336		2.28040520		2.54343923		 0.00023208		 0.00023800		-0.00012052
O		2.70222280		16.15685580		2.96947955		-0.00023295		-0.00023432		 0.00011651
O		7.88215725		11.49899938		3.09079076		-0.00026054		 0.00015203		 0.00020611
O		1.19806891		6.93826457		2.42212606		 0.00026044		-0.00015120		-0.00020689
O		1.19806793		11.49899839		2.42212606		 0.00026072		 0.00015028		-0.00020572
O		7.88215725		6.93826359		3.09079076		-0.00026026		-0.00015294		 0.00020728
O		0.80884511		1.63638467		1.13619195		 0.00036743		 0.00053818		 0.00018635
O		8.27138301		16.80087731		4.37672487		-0.00037374		-0.00054012		-0.00018669
O		8.27138301		1.63638467		4.37672487		-0.00037373		 0.00054086		-0.00018667
O		0.80884511		16.80087731		1.13619195		 0.00036744		-0.00053746		 0.00018636
O		5.98883061		10.85475401		1.25794005		 0.00004327		 0.00050986		 0.00005128
O		3.09139358		7.58250699		4.25497578		-0.00004293		-0.00050712		-0.00005202
O		3.09139358		10.85475500		4.25497578		-0.00004230		 0.00050654		-0.00005190
O		5.98883061		7.58250797		1.25794005		 0.00004391		-0.00051043		 0.00005140
O		2.81206462		4.48037448		4.28753325		 0.00030027		 0.00045185		 0.00031332
O		6.26816154		13.95688849		1.22538553		-0.00030153		-0.00045273		-0.00031348
O		6.26816154		4.48037448		1.22538553		-0.00030159		 0.00045276		-0.00031350
O		2.81206462		13.95688849		4.28753325		 0.00030025		-0.00045189		 0.00031331
O		7.99205208		13.69801827		4.40900842		 0.00042048		 0.00078460		 0.00039354
O		1.08817211		4.73924371		1.10390938		-0.00041888		-0.00078252		-0.00039330
O		1.08817211		13.69801827		1.10390938		-0.00041804		 0.00078148		-0.00039312
O		7.99205208		4.73924470		4.40900842		 0.00042136		-0.00078568		 0.00039371
O		2.88489650		0.00000000		1.59272992		 0.00004092		 0.00000491		 0.00091677
O		6.19532867		0.00000000		3.92018690		-0.00004116		 0.00000497		-0.00091711
O		8.06500277		9.21863246		1.71457817		-0.00006857		-0.00000449		 0.00085511
O		1.01522143		9.21863246		3.79833865		 0.00006819		-0.00000441		-0.00085466
O		0.30933081		3.24474190		3.80425989		 0.00029396		-0.00025861		 0.00024218
O		8.77089437		15.19252106		1.70865693		-0.00029287		 0.00025817		-0.00024189
O		8.77089437		3.24474092		1.70865693		-0.00029321		-0.00025787		-0.00024203
O		0.30933081		15.19252008		3.80425989		 0.00029368		 0.00025891		 0.00024206
O		5.48920144		12.46243576		3.92589803		 0.00029085		-0.00021436		 0.00020340
O		3.59102472		5.97482622		1.58701879		-0.00029302		 0.00021516		-0.00020411
O		3.59102373		12.46243576		1.58701879		-0.00029180		-0.00021545		-0.00020379
O		5.48920046		5.97482622		3.92589803		 0.00029211		 0.00021408		 0.00020374
O		0.14683408		0.00000000		3.75075964		 0.00000609		 0.00000042		 0.00007455
O		8.93332139		0.00000000		1.76213361		 0.00023749		 0.00000042		-0.00001313
O		5.32689027		9.21863148		3.87265207		-0.00015734		-0.00000034		 0.00000365
O		3.75341050		9.21863148		1.64028340		-0.00014172		-0.00000033		-0.00007888
O		3.31757575		2.32358575		0.37881476		-0.00006092		-0.00033893		-0.00012970
O		5.76264844		16.11367722		5.13410108		 0.00005964		 0.00033659		 0.00013183
O		5.76264844		2.32358575		5.13410108		 0.00005899		-0.00033562		 0.00013296
O		3.31757575		16.11367624		0.37881476		-0.00006158		 0.00033990		-0.00012859
O		8.49747682		11.54204836		0.50053145		-0.00008151		-0.00033704		-0.00024697
O		0.58274836		6.89521264		5.01238439		 0.00008141		 0.00033814		 0.00024758
O		0.58274836		11.54205032		5.01238538		 0.00008232		-0.00033929		 0.00024631
O		8.49747584		6.89521461		0.50053145		-0.00008060		 0.00033588		-0.00024826
Ca		-0.63978014		5.12675329		2.63475743		-0.00000090		 0.00054971		-0.00000026
Ca		-0.63978014		13.31050967		2.63475743		-0.00000091		-0.00054973		-0.00000025
Ca		4.54011210		14.34549768		2.75645841		 0.00000074		 0.00041387		 0.00000023
Ca		4.54011210		4.09176528		2.75645841		 0.00000073		-0.00041369		 0.00000024
Mg		0.00000000		0.00000000		0.00000000		-0.00000684		-0.00000064		 0.00000345
Mg		5.17989125		9.21863148		0.12169902		 0.00000652		 0.00000050		-0.00000288
Mg		0.00000000		3.34797424		0.00000000		-0.00000108		-0.00026522		-0.00000057
Mg		0.00000000		15.08928872		0.00000000		-0.00000109		 0.00026481		-0.00000058
Mg		5.17989321		12.56345709		0.12170098		 0.00000115		 0.00011478		 0.00000028
Mg		5.17989321		5.87380489		0.12170098		 0.00000114		-0.00011431		 0.00000027
Mg		-0.63978014		1.63739593		2.63475645		-0.00000351		 0.00059792		-0.00000192
Mg		-0.63978014		16.79986704		2.63475645		-0.00000351		-0.00059888		-0.00000192
Mg		4.54011013		10.85698074		2.75645547		 0.00000405		 0.00021668		 0.00000281
Mg		4.54011013		7.58028125		2.75645547		 0.00000405		-0.00021594		 0.00000281
H		1.07902763		0.00000000		3.99727391		 0.00032673		-0.00000012		-0.00007139
H		8.00125253		0.00000000		1.51566942		-0.00055403		-0.00000012		 0.00001000
H		6.25903178		9.21863148		4.11920758		 0.00039579		 0.00000011		-0.00006664
H		2.82110994		9.21863148		1.39368961		-0.00011368		 0.00000011		 0.00014139
