# total energy = -44009.2050343 eV

CRYSTAL
PRIMVEC
		10.70132519		0.00000000		0.41780498
		0.00000000		18.60416700		0.00000000
		-1.23345494		0.00000000		5.34519397
PRIMECORD
   82 1
Si		2.39196812		1.58224528		1.50152856		 0.00001723		 0.00008501		 0.00004502
Si		7.07594140		17.02191583		4.26148217		-0.00014105		-0.00006836		-0.00007633
Si		7.07590213		1.58224528		4.26146941		-0.00002389		 0.00008192		-0.00004611
Si		2.39192786		17.02191681		1.50151579		 0.00013438		-0.00007145		 0.00007524
Si		7.74279761		10.88417660		1.71004127		 0.00004254		 0.00009585		 0.00005113
Si		1.72511288		7.71998451		4.05297142		-0.00016647		-0.00007678		-0.00008228
Si		1.72507361		10.88417561		4.05295866		-0.00004891		 0.00009401		-0.00005164
Si		7.74275736		7.71998353		1.71002949		 0.00016011		-0.00007861		 0.00008177
Si		1.99209866		3.16977460		4.24842129		-0.00011197		-0.00011466		 0.00002415
Si		7.47584326		15.43441792		1.51459926		-0.00011042		 0.00002435		-0.00007246
Si		7.47576766		3.16977656		1.51457766		 0.00011315		-0.00012035		-0.00002374
Si		1.99202306		15.43441989		4.24839969		 0.00011161		 0.00001866		 0.00007288
Si		7.34284961		12.47080954		4.45683975		-0.00013978		-0.00008039		 0.00002862
Si		2.12509132		6.13338593		1.30618080		-0.00008241		-0.00001110		-0.00007646
Si		2.12501670		12.47080855		1.30615920		 0.00014118		-0.00008513		-0.00002768
Si		7.34277401		6.13338495		4.45681913		 0.00008379		-0.00001583		 0.00007739
O		2.74187966		2.34063667		2.94603613		 0.00010215		 0.00022502		-0.00005978
O		6.72597585		16.26352444		2.81695300		-0.00007549		-0.00020860		 0.00008707
O		6.72598567		2.34063667		2.81696183		-0.00010218		 0.00022617		 0.00005946
O		2.74188948		16.26352346		2.94604595		 0.00007545		-0.00020744		-0.00008738
O		8.09288589		11.64254344		3.15431420		 0.00011582		 0.00019644		-0.00003137
O		1.37497159		6.96161766		2.60867690		-0.00008949		-0.00017962		 0.00005896
O		1.37498141		11.64254344		2.60868671		-0.00011610		 0.00019692		 0.00003174
O		8.09289570		6.96161766		3.15432303		 0.00008920		-0.00017917		-0.00005857
O		0.80124303		1.69225302		1.15406071		 0.00016518		-0.00009091		 0.00016437
O		8.66659579		16.91192085		4.60892351		-0.00008011		 0.00006954		-0.00014485
O		8.66662230		1.69225007		4.60893137		-0.00016057		-0.00008817		-0.00016236
O		0.80126954		16.91191889		1.15406856		 0.00008474		 0.00007227		 0.00014686
O		6.15206762		10.99453582		1.36260680		 0.00014708		-0.00019495		 0.00015721
O		3.31577218		7.60963903		4.40038232		-0.00006229		 0.00017320		-0.00013823
O		3.31579869		10.99453288		4.40038920		-0.00014285		-0.00019226		-0.00015582
O		6.15209511		7.60963608		1.36261466		 0.00006651		 0.00017590		 0.00013963
O		2.99310853		4.43590090		4.42222148		-0.00009625		 0.00020283		 0.00043682
O		6.47472637		14.16823566		1.34077157		 0.00019040		-0.00010719		-0.00041649
O		6.47475877		4.43590090		1.34078041		 0.00009451		 0.00020597		-0.00043798
O		2.99314093		14.16823468		4.42223032		-0.00019216		-0.00010404		 0.00041532
O		8.34397436		13.73665799		4.63107783		-0.00013524		 0.00030061		 0.00042827
O		1.12385956		4.86748348		1.13191425		 0.00022936		-0.00020537		-0.00040791
O		1.12389196		13.73665308		1.13192406		 0.00013314		 0.00030466		-0.00042950
O		8.34400676		4.86747857		4.63108765		-0.00023147		-0.00020130		 0.00040667
O		2.82692121		0.00000000		1.64408984		-0.00045267		-0.00002443		 0.00051357
O		6.64094314		0.00000000		4.11891205		 0.00045332		-0.00002443		-0.00051384
O		8.17760050		9.30209135		1.85305124		-0.00050728		-0.00002734		 0.00048795
O		1.29026385		9.30209135		3.90995262		 0.00050803		-0.00002734		-0.00048868
O		0.38929154		3.34109673		3.86865222		 0.00020707		 0.00020644		-0.00001816
O		9.07853550		15.26307321		1.89433691		-0.00008997		-0.00021699		 0.00004498
O		9.07857477		3.34109477		1.89434771		-0.00020580		 0.00020747		 0.00001842
O		0.38933082		15.26307125		3.86866302		 0.00009124		-0.00021595		-0.00004471
O		5.73997476		12.64146601		4.07699018		 0.00022834		 0.00030469		-0.00000359
O		3.72785229		5.96270492		1.68599797		-0.00011040		-0.00031551		 0.00003092
O		3.72789058		12.64146404		1.68600975		-0.00022601		 0.00030599		 0.00000438
O		5.74001305		5.96270295		4.07700196		 0.00011273		-0.00031420		-0.00003011
O		0.16229841		0.00000000		3.79695530		-0.00012631		-0.00001040		 0.00002111
O		9.30551783		0.00000000		1.96601910		 0.00028268		-0.00001040		 0.00001635
O		5.51276464		9.30208546		4.00580673		-0.00036140		-0.00001060		-0.00004557
O		3.95504767		9.30208546		1.75715785		 0.00060273		-0.00001061		 0.00010754
O		3.30519623		2.25323291		0.30623421		 0.00001566		 0.00003919		 0.00010451
O		6.16266223		16.35093016		5.45676866		 0.00001437		-0.00002831		-0.00011472
O		6.16267204		2.25323192		5.45676572		-0.00001587		 0.00004119		-0.00010428
O		3.30520605		16.35092918		0.30623127		-0.00001462		-0.00002630		 0.00011496
O		8.65611410		11.55455060		0.51465071		 0.00002037		 0.00001627		 0.00009451
O		0.81174927		7.04961345		5.24835413		 0.00000854		-0.00000469		-0.00010588
O		0.81175909		11.55454864		5.24835216		-0.00002134		 0.00001711		-0.00009598
O		8.65612391		7.04961149		0.51464777		-0.00000951		-0.00000384		 0.00010442
Ca		-0.61672845		5.18744718		2.67259895		 0.00000041		-0.00023941		-0.00000060
Ca		-0.61672845		13.41672178		2.67259895		 0.00000041		 0.00022653		-0.00000060
Ca		4.73393218		14.48911047		2.88150144		 0.00000056		-0.00025130		-0.00000040
Ca		4.73393218		4.11505947		2.88150144		 0.00000055		 0.00023849		-0.00000040
Mg		0.00000000		0.00000000		0.00000000		-0.00000350		 0.00001726		 0.00000208
Mg		5.35066259		9.30207761		0.20890642		-0.00000275		 0.00001742		 0.00000029
Mg		0.00000000		3.44759061		0.00000000		-0.00000091		-0.00031633		 0.00000074
Mg		0.00000000		15.15657540		0.00000000		-0.00000091		 0.00031674		 0.00000074
Mg		5.35066161		12.74587258		0.20890249		-0.00000038		-0.00008408		 0.00000047
Mg		5.35066161		5.85829245		0.20890249		-0.00000037		 0.00008475		 0.00000047
Mg		-0.61673238		1.65788904		2.67259109		-0.00000185		 0.00051734		-0.00000132
Mg		-0.61673238		16.94626912		2.67259109		-0.00000185		-0.00049191		-0.00000132
Mg		4.73393218		10.96118702		2.88149849		-0.00000186		 0.00039043		-0.00000182
Mg		4.73393218		7.64297114		2.88149849		-0.00000186		-0.00036482		-0.00000182
H		1.09794298		0.00000000		4.03377331		 0.00004392		 0.00000101		 0.00000929
H		8.36995573		0.00000000		1.72921975		-0.00019009		 0.00000101		-0.00004651
H		6.44826195		9.30208252		4.24275041		 0.00024220		 0.00000109		 0.00005137
H		3.01967997		9.30208252		1.52025148		-0.00047402		 0.00000109		-0.00011045
