# total energy = -18389.3302272 eV

CRYSTAL
PRIMVEC
		9.99881960		0.00000000		0.00000000
		0.00000000		6.38939571		0.00000000
		0.00000000		0.00000000		4.82810002
PRIMECORD
   28 1
Mg		0.00000000		0.00000000		0.00000000		0.00000000		0.00000000		0.00000000
Mg		4.99940980		0.00000000		2.41405001		-0.00000000		0.00000000		0.00000000
Mg		0.00000000		3.19469985		0.00000000		0.00000000		0.00000000		0.00000000
Mg		4.99940980		3.19469985		2.41405001		-0.00000000		0.00000000		0.00000000
Ca		2.76807322		1.59735043		4.71922688		 0.00078170		0.00000000		 0.00048848
Ca		7.23074638		4.79205028		0.10887415		-0.00078170		-0.00000000		-0.00048848
Ca		2.23133658		4.79205028		2.30517686		-0.00078170		-0.00000000		 0.00048848
Ca		7.76748302		1.59735043		2.52292416		 0.00078170		0.00000000		-0.00048848
Si		0.81550373		1.59735043		1.98425275		 0.00070215		0.00000000		-0.00016829
Si		9.18331587		4.79205028		2.84384827		-0.00070215		0.00000000		 0.00016829
Si		4.18390607		4.79205028		4.39830276		-0.00070215		0.00000000		-0.00016829
Si		5.81491353		1.59735043		0.42979826		 0.00070215		0.00000000		 0.00016829
O		0.77660832		1.59735043		3.60031397		-0.00032339		0.00000000		-0.00025188
O		9.22221128		4.79205028		1.22778605		 0.00032339		0.00000000		 0.00025188
O		4.22280148		4.79205028		1.18626396		 0.00032339		-0.00000000		-0.00025188
O		5.77601812		1.59735043		3.64183607		-0.00032339		0.00000000		 0.00025188
O		4.48956999		1.59735043		1.18771279		 0.00076678		0.00000000		 0.00073498
O		5.50924961		4.79205028		3.64038824		-0.00076678		0.00000000		-0.00073498
O		0.50983981		4.79205028		3.60176280		-0.00076678		-0.00000000		 0.00073498
O		9.48898079		1.59735043		1.22633723		 0.00076678		0.00000000		-0.00073498
O		1.47512586		0.29199553		1.31952023		 0.00017910		-0.00033639		-0.00018019
O		8.52369374		6.09740418		3.50857980		-0.00017910		 0.00033639		 0.00018019
O		3.52428394		6.09740418		3.73357024		-0.00017910		 0.00033639		-0.00018019
O		6.47453565		0.29199553		1.09452979		 0.00017910		-0.00033639		 0.00018019
O		8.52369374		3.48669538		3.50857980		-0.00017910		-0.00033639		 0.00018019
O		1.47512586		2.90270432		1.31952023		 0.00017910		 0.00033639		-0.00018019
O		6.47453565		2.90270432		1.09452979		 0.00017910		 0.00033639		 0.00018019
O		3.52428394		3.48669538		3.73357024		-0.00017910		-0.00033639		-0.00018019
