# total energy = -18274.9264758 eV

CRYSTAL
PRIMVEC
		5.33600010		0.00000000		0.00000000
		-2.66800005		4.62110949		0.00000000
		0.00000000		0.00000000		14.61400229
PRIMECORD
   28 1
Mg		1.77155203		0.00000000		3.19754310		 0.00027044		-0.00000000		-0.00006638
Mg		-0.88577602		1.53420888		3.19754310		-0.00013522		 0.00023421		-0.00006638
Mg		1.78222403		3.08690220		3.19754310		-0.00013522		-0.00023421		-0.00006638
Mg		3.56444807		0.00000000		10.50454425		-0.00027044		0.00000000		-0.00006638
Mg		-1.78222403		3.08690220		10.50454425		 0.00013522		-0.00023421		-0.00006638
Mg		0.88577602		1.53420888		10.50454425		 0.00013522		 0.00023421		-0.00006638
Si		0.00000000		3.08074126		0.42672900		0.00000000		0.00000000		 0.00049672
Si		2.66800005		1.54036983		7.73372908		0.00000000		-0.00000000		 0.00049672
Si		0.00000000		3.08074126		7.73372908		0.00000000		0.00000000		 0.00049672
Si		2.66800005		1.54037090		0.42672900		0.00000000		0.00000000		 0.00049672
O		0.00000000		3.08074126		2.05472822		-0.00000000		-0.00000000		-0.00036790
O		2.66800005		1.54036983		9.36172830		0.00000000		0.00000000		-0.00036790
O		0.00000000		3.08074126		9.36172830		0.00000000		0.00000000		-0.00036790
O		2.66800005		1.54037090		2.05472822		-0.00000000		-0.00000000		-0.00036790
O		2.63598405		0.00000000		14.48247416		 0.00014530		0.00000000		 0.00018239
O		-1.31799202		2.28282889		14.48247416		-0.00007265		 0.00012584		 0.00018239
O		1.35000803		2.33828327		14.48247416		-0.00007265		-0.00012584		 0.00018239
O		2.70001605		0.00000000		7.17547408		-0.00014530		-0.00000000		 0.00018239
O		-1.35000803		2.33828327		7.17547408		 0.00007265		-0.00012584		 0.00018239
O		1.31799202		2.28282889		7.17547408		 0.00007265		 0.00012584		 0.00018239
O		3.55733305		0.00000000		4.17814304		-0.00002097		0.00000000		-0.00016252
O		-1.77866706		3.08074126		4.17814304		 0.00001049		-0.00001816		-0.00016252
O		0.88933299		1.54036983		4.17814304		 0.00001049		 0.00001816		-0.00016252
O		1.77866706		0.00000000		11.48514312		 0.00002097		-0.00000000		-0.00016252
O		-0.88933299		1.54036983		11.48514312		-0.00001049		 0.00001816		-0.00016252
O		1.77866706		3.08074126		11.48514312		-0.00001049		-0.00001816		-0.00016252
O		0.00000000		0.00000000		2.10441599		-0.00000000		-0.00000000		-0.00011811
O		0.00000000		0.00000000		9.41141607		0.00000000		0.00000000		-0.00011811
