# total energy = -10831.8773196 eV	

CRYSTAL	
PRIMVEC	
		3.03199896		0.00000000		-0.24255931	
		-1.51600100		2.62578778		0.12128118	
		-1.19680031		0.00000000		14.95999782	
PRIMCOORD
   13 1	
Mg		1.31653296		0.87526300		2.37205271		-0.00049925		-0.00060007		 0.00006709	
Mg		-0.99733288		1.75052600		12.46666515		 0.00049925		 0.00060007		-0.00006709	
Mg		0.00000000		0.00000000		0.00000000		0.00000000		0.00000000		0.00000000	
Mg		-0.39893303		1.75052600		4.98666655		 0.00006864		 0.00035325		 0.00005254	
Mg		0.71813281		0.87526300		9.85205222		-0.00006864		-0.00035325		-0.00005254	
O		0.41893303		0.87526300		13.59205305		-0.00011164		-0.00037911		 0.00040378	
O		-0.09973295		1.75052600		1.24666603		 0.00011164		 0.00037911		-0.00040378	
O		1.02890194		0.87526300		5.96743958		-0.00021805		 0.00029945		 0.00008966	
O		-0.70970186		1.75052600		8.87127950		 0.00021805		-0.00029945		-0.00008966	
O		-0.89783901		0.00000000		11.22299123		 0.00012899		-0.00077226		-0.00032319	
O		-0.29896100		0.00000000		3.73700780		-0.00012899		 0.00077226		 0.00032319	
H		0.94967391		0.87526300		6.95779148		 0.00040975		-0.00069882		 0.00057349	
H		-0.63047383		1.75052600		7.88092850		-0.00040975		 0.00069882		-0.00057349	
