# total energy = -18358.3093057 eV

CRYSTAL
PRIMVEC
		4.81499975		0.00000000		0.00000000
		0.00000000		10.52599872		0.00000000
		0.00000000		0.00000000		6.36999910
PRIMECORD
   28 1
Mg		0.00000000		0.00000000		0.00000000		0.00000000		0.00000000		-0.00000000
Mg		2.40749987		5.26299984		0.00000000		0.00000000		0.00000000		0.00000000
Mg		0.00000000		0.00000000		3.18500003		0.00000000		0.00000000		-0.00000000
Mg		2.40749987		5.26299984		3.18500003		0.00000000		0.00000000		0.00000000
Ca		4.73314475		2.70518194		1.59250002		 0.00063213		-0.00046239		0.00000000
Ca		0.08185500		7.82081775		4.77749957		-0.00063213		 0.00046239		0.00000000
Ca		2.32564488		2.55781791		4.77749957		 0.00063213		 0.00046239		0.00000000
Ca		2.48935487		7.96818178		1.59250002		-0.00063213		-0.00046239		0.00000000
Si		1.94044490		0.90523584		1.59250002		-0.00021532		 0.00000401		-0.00000000
Si		2.87455485		9.62076336		4.77749957		 0.00021532		-0.00000401		-0.00000000
Si		4.34794477		4.35776400		4.77749957		-0.00021532		-0.00000401		0.00000000
Si		0.46705498		6.16823568		1.59250002		 0.00021532		 0.00000401		0.00000000
O		3.67865981		0.70524194		1.59250002		-0.00035809		-0.00006731		-0.00000000
O		1.13633994		9.82075727		4.77749957		 0.00035809		 0.00006731		0.00000000
O		1.27115993		4.55775790		4.77749957		-0.00035809		 0.00006731		0.00000000
O		3.54383981		5.96824178		1.59250002		 0.00035809		-0.00006731		0.00000000
O		3.54383981		4.88406370		1.59250002		-0.00000508		-0.00014091		0.00000000
O		1.27115993		5.64193551		4.77749957		 0.00000508		 0.00014091		0.00000000
O		1.13633994		0.37893615		4.77749957		-0.00000508		 0.00014091		0.00000000
O		3.67865981		10.14706354		1.59250002		 0.00000508		-0.00014091		0.00000000
O		1.20374994		1.61047778		0.19110012		-0.00011120		 0.00013384		 0.00003816
O		3.61124981		8.91552142		6.17889946		 0.00011120		-0.00013384		-0.00003816
O		3.61124981		3.65252158		6.17889946		-0.00011120		-0.00013384		-0.00003816
O		1.20374994		6.87347762		0.19110012		 0.00011120		 0.00013384		 0.00003816
O		3.61124981		8.91552142		3.37609967		 0.00011120		-0.00013384		 0.00003816
O		1.20374994		1.61047778		2.99389991		-0.00011120		 0.00013384		-0.00003816
O		1.20374994		6.87347762		2.99389991		 0.00011120		 0.00013384		-0.00003816
O		3.61124981		3.65252158		3.37609967		-0.00011120		-0.00013384		 0.00003816
