# total energy = -18385.3741485 eV

CRYSTAL
PRIMVEC
		4.81499975		0.00000000		0.00000000
		0.00000000		11.35700027		0.00000000
		0.00000000		0.00000000		6.36999910
PRIMECORD
   28 1
Mg		0.00000000		0.00000000		0.00000000		0.00000000		-0.00000000		0.00000000
Mg		2.40749987		5.67849965		0.00000000		0.00000000		0.00000000		0.00000000
Mg		0.00000000		0.00000000		3.18500003		0.00000000		0.00000000		0.00000000
Mg		2.40749987		5.67849965		3.18500003		0.00000000		0.00000000		-0.00000000
Ca		4.73314475		2.91874884		1.59250002		-0.00000827		 0.00003662		0.00000000
Ca		0.08185500		8.43825046		4.77749957		 0.00000827		-0.00003662		0.00000000
Ca		2.32564488		2.75975081		4.77749957		-0.00000827		-0.00003662		0.00000000
Ca		2.48935487		8.59724850		1.59250002		 0.00000827		 0.00003662		-0.00000000
Si		1.94044490		0.97670199		1.59250002		 0.00007514		-0.00005881		-0.00000000
Si		2.87455485		10.38029731		4.77749957		-0.00007514		 0.00005881		-0.00000000
Si		4.34794477		4.70179766		4.77749957		 0.00007514		 0.00005881		-0.00000000
Si		0.46705498		6.65520165		1.59250002		-0.00007514		-0.00005881		-0.00000000
O		3.67865981		0.76091874		1.59250002		 0.00038879		-0.00005155		0.00000000
O		1.13633994		10.59608056		4.77749957		-0.00038879		 0.00005155		0.00000000
O		1.27115993		4.91758091		4.77749957		 0.00038879		 0.00005155		-0.00000000
O		3.54383981		6.43941888		1.59250002		-0.00038879		-0.00005155		-0.00000000
O		3.54383981		5.26964791		1.59250002		-0.00018943		-0.00017282		0.00000000
O		1.27115993		6.08735187		4.77749957		 0.00018943		 0.00017282		0.00000000
O		1.13633994		0.40885174		4.77749957		-0.00018943		 0.00017282		-0.00000000
O		3.67865981		10.94814757		1.59250002		 0.00018943		-0.00017282		-0.00000000
O		1.20374994		1.73762074		0.19110012		-0.00011960		 0.00013718		 0.00006998
O		3.61124981		9.61937857		6.17889946		 0.00011960		-0.00013718		-0.00006998
O		3.61124981		3.94087892		6.17889946		-0.00011960		-0.00013718		-0.00006998
O		1.20374994		7.41612039		0.19110012		 0.00011960		 0.00013718		 0.00006998
O		3.61124981		9.61937857		3.37609967		 0.00011960		-0.00013718		 0.00006998
O		1.20374994		1.73762074		2.99389991		-0.00011960		 0.00013718		-0.00006998
O		1.20374994		7.41612039		2.99389991		 0.00011960		 0.00013718		-0.00006998
O		3.61124981		3.94087892		3.37609967		-0.00011960		-0.00013718		 0.00006998
