# total energy = -41261.3385267 eV

CRYSTAL
PRIMVEC
		5.69829968		0.00000000		0.00000000
		0.00000000		11.43799751		1.83007732
		0.00000000		1.32105391		8.25659691
PRIMECORD
   56 1
Mg		0.00000000		0.00000000		0.00000000		0.00000000		0.00000000		0.00000000
Mg		0.00000000		5.71899990		0.91503980		0.00000000		0.00000000		0.00000000
Mg		2.84914984		6.37952742		5.04333997		0.00000000		0.00000000		0.00000000
Mg		2.84914984		0.66052809		4.12829960		0.00000000		0.00000000		0.00000000
Mg		0.00000000		4.14105581		8.46724767		0.00000000		 0.00033045		 0.00026963
Mg		0.00000000		8.61799846		1.61943170		0.00000000		-0.00033045		-0.00026963
Mg		2.84914984		9.19952761		5.25398787		0.00000000		 0.00033046		 0.00026957
Mg		2.84914984		3.55952780		4.83269263		0.00000000		-0.00033046		-0.00026957
Mg		1.42457492		1.78975274		2.29766783		-0.00035756		 0.00002173		 0.00042919
Mg		4.27372476		10.96930211		7.78901154		 0.00035756		-0.00002173		-0.00042919
Mg		4.27372476		4.58977469		2.74567157		-0.00035752		-0.00002170		-0.00042934
Mg		1.42457492		8.16928073		7.34100780		 0.00035752		 0.00002170		 0.00042934
Mg		4.27372476		8.16928073		7.34100780		-0.00035752		 0.00002170		 0.00042934
Mg		1.42457492		4.58977469		2.74567157		 0.00035752		-0.00002170		-0.00042934
Mg		1.42457492		10.96930211		7.78901154		-0.00035756		-0.00002173		-0.00042919
Mg		4.27372476		1.78975274		2.29766783		 0.00035756		 0.00002173		 0.00042919
Si		0.00000000		2.18509963		5.31191451		0.00000000		-0.00022009		-0.00021365
Si		0.00000000		10.57395522		4.77476600		0.00000000		 0.00022009		 0.00021365
Si		0.00000000		5.16355472		5.78846787		-0.00000000		-0.00066220		 0.00061632
Si		0.00000000		7.59550070		4.29821264		-0.00000000		 0.00066220		-0.00061632
Si		2.84914984		7.24357086		2.09865471		0.00000000		-0.00021878		-0.00021526
Si		2.84914984		5.51548341		7.98802579		0.00000000		 0.00021878		 0.00021526
Si		2.84914984		10.22202652		2.57520693		0.00000000		-0.00066266		 0.00061544
Si		2.84914984		2.53702890		7.51147243		0.00000000		 0.00066266		-0.00061544
O		0.00000000		3.14564092		2.24589992		0.00000000		-0.00032482		-0.00010471
O		0.00000000		9.61341449		7.84078059		0.00000000		 0.00032482		 0.00010471
O		2.84914984		9.52516834		7.28923931		0.00000000		-0.00032485		-0.00010490
O		2.84914984		3.23388707		2.79744062		0.00000000		 0.00032485		 0.00010490
O		0.00000000		3.80590462		6.37254871		0.00000000		-0.00071782		 0.00065085
O		0.00000000		8.95315023		3.71413179		0.00000000		 0.00071782		-0.00065085
O		2.84914984		8.86437528		3.15928892		-0.00000000		-0.00071781		 0.00065101
O		2.84914984		3.89467900		6.92739158		-0.00000000		 0.00071781		-0.00065101
O		0.00000000		11.66154523		3.92381782		0.00000000		 0.00017707		-0.00010101
O		0.00000000		1.09751018		6.16286268		0.00000000		-0.00017707		 0.00010101
O		0.00000000		6.17130585		3.04537877		0.00000000		 0.00022753		-0.00045060
O		0.00000000		6.58774956		7.04130060		0.00000000		-0.00022753		 0.00045060
O		2.84914984		6.60307343		7.13707762		0.00000000		 0.00017842		-0.00010219
O		2.84914984		6.15598142		2.94960289		0.00000000		-0.00017842		 0.00010219
O		2.84914984		1.11283405		6.25863856		0.00000000		 0.00022722		-0.00045113
O		2.84914984		11.64622136		3.82804080		0.00000000		-0.00022722		 0.00045113
O		1.49010480		2.71230290		8.41886056		 0.00045285		-0.00065202		 0.00003468
O		4.20819375		10.04675252		1.66781995		-0.00045285		 0.00065202		-0.00003468
O		4.20819375		5.62899240		8.88553079		-0.00032933		-0.00030115		 0.00017449
O		1.49010480		7.13006244		1.20114915		 0.00032933		 0.00030115		-0.00017449
O		4.20819375		7.13006244		1.20114915		-0.00032933		 0.00030115		-0.00017449
O		1.49010480		5.62899240		8.88553079		 0.00032933		-0.00030115		 0.00017449
O		1.49010480		10.04675252		1.66781995		 0.00045285		 0.00065202		-0.00003468
O		4.20819375		2.71230290		8.41886056		-0.00045285		-0.00065202		 0.00003468
O		4.33925464		7.77077470		5.20560076		 0.00045251		-0.00065204		 0.00003492
O		1.35904504		4.98828072		4.88107974		-0.00045251		 0.00065204		-0.00003492
O		1.35904504		10.68746421		5.67227042		-0.00032894		-0.00030115		 0.00017471
O		4.33925464		2.07159064		4.41440894		 0.00032894		 0.00030115		-0.00017471
O		1.35904504		2.07159064		4.41440894		-0.00032894		 0.00030115		-0.00017471
O		4.33925464		10.68746421		5.67227042		 0.00032894		-0.00030115		 0.00017471
O		4.33925464		4.98828072		4.88107974		 0.00045251		 0.00065204		-0.00003492
O		1.35904504		7.77077470		5.20560076		-0.00045251		-0.00065204		 0.00003492
