# total energy = -41274.3325227 eV

CRYSTAL
PRIMVEC
		5.69829968		0.00000000		0.00000000
		0.00000000		11.43799751		-0.45752218
		0.00000000		-0.33026205		8.25659691
PRIMECORD
   56 1
Mg		0.00000000		0.00000000		0.00000000		0.00000000		0.00000000		0.00000000
Mg		0.00000000		5.71899990		-0.22875995		0.00000000		0.00000000		0.00000000
Mg		2.84914984		5.55386773		3.89953965		0.00000000		0.00000000		0.00000000
Mg		2.84914984		-0.16513217		4.12829960		0.00000000		0.00000000		0.00000000
Mg		0.00000000		2.53911105		7.89534751		0.00000000		-0.00038262		-0.00026715
Mg		0.00000000		8.56862441		-0.09626821		0.00000000		 0.00038262		 0.00026715
Mg		2.84914984		8.42324255		3.53828796		0.00000000		-0.00038261		-0.00026715
Mg		2.84914984		2.68449291		4.26079304		0.00000000		 0.00038261		 0.00026715
Mg		1.42457492		1.37692289		2.00577072		 0.00052803		 0.00000164		-0.00062651
Mg		4.27372476		9.73081257		5.79330971		-0.00052803		-0.00000164		 0.00062651
Mg		4.27372476		4.17694484		1.89377007		 0.00052803		-0.00000164		 0.00062650
Mg		1.42457492		6.93079062		5.90531093		-0.00052803		 0.00000164		-0.00062650
Mg		4.27372476		6.93079062		5.90531093		 0.00052803		 0.00000164		-0.00062650
Mg		1.42457492		4.17694484		1.89377007		-0.00052803		-0.00000164		 0.00062650
Mg		1.42457492		9.73081257		5.79330971		 0.00052803		-0.00000164		 0.00062651
Mg		4.27372476		1.37692289		2.00577072		-0.00052803		 0.00000164		-0.00062651
Si		0.00000000		1.16656617		5.03785991		-0.00000000		 0.00049358		-0.00049523
Si		0.00000000		9.94117043		2.76121995		-0.00000000		-0.00049358		 0.00049523
Si		0.00000000		4.14502069		4.91872157		-0.00000000		 0.00089277		 0.00021122
Si		0.00000000		6.96271477		2.88035772		-0.00000000		-0.00089277		-0.00021122
Si		2.84914984		7.05069652		0.68079980		0.00000000		 0.00049358		-0.00049523
Si		2.84914984		4.05703780		7.11827950		0.00000000		-0.00049358		 0.00049523
Si		2.84914984		10.02915218		0.56166203		-0.00000000		 0.00089275		 0.00021121
Si		2.84914984		1.07858271		7.23741784		-0.00000000		-0.00089275		-0.00021121
O		0.00000000		2.78796492		1.67399976		0.00000000		 0.00058153		-0.00037439
O		0.00000000		8.31977054		6.12508068		0.00000000		-0.00058153		 0.00037439
O		2.84914984		8.34183265		5.57353997		0.00000000		 0.00058153		-0.00037441
O		2.84914984		2.76590281		2.22554103		0.00000000		-0.00058153		 0.00037441
O		0.00000000		2.62289885		5.80064855		0.00000000		 0.00050041		-0.00065231
O		0.00000000		8.48483661		1.99843188		0.00000000		-0.00050041		 0.00065231
O		2.84914984		8.50703035		1.44358901		-0.00000000		 0.00050040		-0.00065230
O		2.84914984		2.60070512		6.35549142		-0.00000000		-0.00050040		 0.00065230
O		0.00000000		11.23913711		1.65909414		0.00000000		 0.00018860		 0.00085578
O		0.00000000		-0.13140279		6.13998686		0.00000000		-0.00018860		-0.00085578
O		0.00000000		5.74889774		1.87870262		0.00000000		 0.00064648		-0.00033210
O		0.00000000		5.35883659		5.92037667		0.00000000		-0.00064648		 0.00033210
O		2.84914984		5.35500562		6.01615369		0.00000000		 0.00018860		 0.00085577
O		2.84914984		5.75272870		1.78292674		0.00000000		-0.00018860		-0.00085577
O		2.84914984		-0.13523376		6.23576274		0.00000000		 0.00064648		-0.00033212
O		2.84914984		11.24296865		1.56331712		0.00000000		-0.00064648		 0.00033212
O		1.49010480		1.07336820		8.13862957		 0.00004859		-0.00010135		 0.00037463
O		4.20819375		10.03436726		-0.33954914		-0.00004859		 0.00010135		-0.00037463
O		4.20819375		3.99005771		8.02196145		-0.00014753		 0.00040673		 0.00007597
O		1.49010480		7.11767776		-0.22288215		 0.00014753		-0.00040673		-0.00007597
O		4.20819375		7.11767776		-0.22288215		-0.00014753		-0.00040673		-0.00007597
O		1.49010480		3.99005771		8.02196145		 0.00014753		 0.00040673		 0.00007597
O		1.49010480		10.03436726		-0.33954914		 0.00004859		 0.00010135		-0.00037463
O		4.20819375		1.07336820		8.13862957		-0.00004859		-0.00010135		 0.00037463
O		4.33925464		6.95749969		3.78157003		 0.00004859		-0.00010134		 0.00037464
O		1.35904504		4.15023577		4.01751097		-0.00004859		 0.00010134		-0.00037464
O		1.35904504		9.87418920		3.66490190		-0.00014753		 0.00040673		 0.00007598
O		4.33925464		1.23354569		4.13417796		 0.00014753		-0.00040673		-0.00007598
O		1.35904504		1.23354569		4.13417796		-0.00014753		-0.00040673		-0.00007598
O		4.33925464		9.87418920		3.66490190		 0.00014753		 0.00040673		 0.00007598
O		4.33925464		4.15023577		4.01751097		 0.00004859		 0.00010134		-0.00037464
O		1.35904504		6.95749969		3.78157003		-0.00004859		-0.00010134		 0.00037464
