# total energy = -41269.0801988 eV

CRYSTAL
PRIMVEC
		5.69780014		0.00000000		0.00000000
		0.00000000		11.46200244		0.00000000
		0.00000000		0.00000000		7.43139002
PRIMECORD
   56 1
Mg		0.00000000		0.00000000		0.00000000		0.00000000		0.00000000		0.00000000
Mg		0.00000000		5.73100008		0.00000000		0.00000000		0.00000000		0.00000000
Mg		2.84890007		5.73100008		3.71569501		0.00000000		0.00000000		0.00000000
Mg		2.84890007		0.00000000		3.71569501		0.00000000		0.00000000		0.00000000
Mg		0.00000000		2.86550004		7.20696222		0.00000000		 0.00000007		 0.00011685
Mg		0.00000000		8.59650012		0.22442780		0.00000000		-0.00000007		-0.00011685
Mg		2.84890007		8.59650012		3.49126721		0.00000000		-0.00000005		 0.00011691
Mg		2.84890007		2.86550004		3.94012338		0.00000000		 0.00000005		-0.00011691
Mg		1.42445004		1.45452815		1.85784807		0.00000000		 0.00065569		-0.00000001
Mg		4.27335011		10.00747201		5.57354308		-0.00000000		-0.00065569		 0.00000001
Mg		4.27335011		4.27647193		1.85784807		-0.00000000		-0.00065560		-0.00000001
Mg		1.42445004		7.18552823		5.57354308		0.00000000		 0.00065560		 0.00000001
Mg		4.27335011		7.18552823		5.57354308		-0.00000000		 0.00065560		 0.00000001
Mg		1.42445004		4.27647193		1.85784807		0.00000000		-0.00065560		-0.00000001
Mg		1.42445004		10.00747201		5.57354308		0.00000000		-0.00065569		 0.00000001
Mg		4.27335011		1.45452815		1.85784807		-0.00000000		 0.00065569		-0.00000001
Si		0.00000000		1.37429401		4.58145238		0.00000000		-0.00009843		 0.00073771
Si		0.00000000		10.08770615		2.84993821		0.00000000		 0.00009843		-0.00073771
Si		0.00000000		4.35670607		4.58145238		0.00000000		 0.00009906		 0.00073780
Si		0.00000000		7.10529409		2.84993821		0.00000000		-0.00009906		-0.00073780
Si		2.84890007		7.10529409		0.86575680		0.00000000		-0.00009922		 0.00073782
Si		2.84890007		4.35670607		6.56563322		0.00000000		 0.00009922		-0.00073782
Si		2.84890007		10.08770615		0.86575680		0.00000000		 0.00009845		 0.00073765
Si		2.84890007		1.37429401		6.56563322		0.00000000		-0.00009845		-0.00073765
O		0.00000000		2.86550004		1.62152897		0.00000000		-0.00000009		 0.00039836
O		0.00000000		8.59650012		5.80986105		0.00000000		 0.00000009		-0.00039836
O		2.84890007		8.59650012		5.33722397		0.00000000		 0.00000009		 0.00039843
O		2.84890007		2.86550004		2.09416604		-0.00000000		-0.00000009		-0.00039843
O		0.00000000		2.86550004		5.31864630		0.00000000		-0.00000033		 0.00013205
O		0.00000000		8.59650012		2.11274429		0.00000000		 0.00000033		-0.00013205
O		2.84890007		8.59650012		1.60295129		0.00000000		 0.00000036		 0.00013198
O		2.84890007		2.86550004		5.82843930		0.00000000		-0.00000036		-0.00013198
O		0.00000000		11.34508700		1.90615231		0.00000000		-0.00010686		-0.00073262
O		0.00000000		0.11691316		5.52523827		0.00000000		 0.00010686		 0.00073262
O		0.00000000		5.84791324		1.90615231		0.00000000		 0.00010719		-0.00073247
O		0.00000000		5.61408692		5.52523827		-0.00000000		-0.00010719		 0.00073247
O		2.84890007		5.61408692		5.62184732		0.00000000		-0.00010723		-0.00073239
O		2.84890007		5.84791324		1.80954326		0.00000000		 0.00010723		 0.00073239
O		2.84890007		0.11691316		5.62184732		0.00000000		 0.00010693		-0.00073261
O		2.84890007		11.34508700		1.80954326		0.00000000		-0.00010693		 0.00073261
O		1.48199782		1.40524104		7.38011324		 0.00022714		 0.00004528		-0.00035189
O		4.21580232		10.05675798		0.05127678		-0.00022714		-0.00004528		 0.00035189
O		4.21580232		4.32575904		7.38011324		-0.00022706		-0.00004538		-0.00035182
O		1.48199782		7.13624112		0.05127678		 0.00022706		 0.00004538		 0.00035182
O		4.21580232		7.13624112		0.05127678		-0.00022706		 0.00004538		 0.00035182
O		1.48199782		4.32575904		7.38011324		 0.00022706		-0.00004538		-0.00035182
O		1.48199782		10.05675798		0.05127678		 0.00022714		-0.00004528		 0.00035189
O		4.21580232		1.40524104		7.38011324		-0.00022714		 0.00004528		-0.00035189
O		4.33089789		7.13624112		3.66441823		 0.00022711		 0.00004540		-0.00035185
O		1.36690225		4.32575904		3.76697236		-0.00022711		-0.00004540		 0.00035185
O		1.36690225		10.05675798		3.66441823		-0.00022714		-0.00004528		-0.00035190
O		4.33089789		1.40524104		3.76697236		 0.00022714		 0.00004528		 0.00035190
O		1.36690225		1.40524104		3.76697236		-0.00022714		 0.00004528		 0.00035190
O		4.33089789		10.05675798		3.66441823		 0.00022714		-0.00004528		-0.00035190
O		4.33089789		4.32575904		3.76697236		 0.00022711		-0.00004540		 0.00035185
O		1.36690225		7.13624112		3.66441823		-0.00022711		 0.00004540		-0.00035185
