# total energy = -41274.9520575 eV

CRYSTAL
PRIMVEC
		5.69780014		0.00000000		0.00000000
		0.00000000		11.46200244		0.00000000
		0.00000000		0.00000000		8.05067252
PRIMECORD
   56 1
Mg		0.00000000		0.00000000		0.00000000		0.00000000		0.00000000		0.00000000
Mg		0.00000000		5.73100008		0.00000000		0.00000000		0.00000000		0.00000000
Mg		2.84890007		5.73100008		4.02533626		0.00000000		0.00000000		0.00000000
Mg		2.84890007		0.00000000		4.02533626		0.00000000		0.00000000		0.00000000
Mg		0.00000000		2.86550004		7.80754226		0.00000000		 0.00000002		 0.00027942
Mg		0.00000000		8.59650012		0.24313026		0.00000000		-0.00000002		-0.00027942
Mg		2.84890007		8.59650012		3.78220600		0.00000000		0.00000000		 0.00027941
Mg		2.84890007		2.86550004		4.26846709		0.00000000		-0.00000000		-0.00027941
Mg		1.42445004		1.45452815		2.01266813		-0.00000000		-0.00027847		 0.00000003
Mg		4.27335011		10.00747201		6.03800439		0.00000000		 0.00027847		-0.00000003
Mg		4.27335011		4.27647193		2.01266813		0.00000000		 0.00027847		 0.00000001
Mg		1.42445004		7.18552823		6.03800439		-0.00000000		-0.00027847		-0.00000001
Mg		4.27335011		7.18552823		6.03800439		0.00000000		-0.00027847		-0.00000001
Mg		1.42445004		4.27647193		2.01266813		-0.00000000		 0.00027847		 0.00000001
Mg		1.42445004		10.00747201		6.03800439		-0.00000000		 0.00027847		-0.00000003
Mg		4.27335011		1.45452815		2.01266813		0.00000000		-0.00027847		 0.00000003
Si		0.00000000		1.37429401		4.96324032		0.00000000		-0.00043490		-0.00007999
Si		0.00000000		10.08770615		3.08743335		0.00000000		 0.00043490		 0.00007999
Si		0.00000000		4.35670607		4.96324032		0.00000000		 0.00043494		-0.00007995
Si		0.00000000		7.10529409		3.08743335		0.00000000		-0.00043494		 0.00007995
Si		2.84890007		7.10529409		0.93790406		0.00000000		-0.00043486		-0.00007992
Si		2.84890007		4.35670607		7.11276904		0.00000000		 0.00043486		 0.00007992
Si		2.84890007		10.08770615		0.93790406		0.00000000		 0.00043487		-0.00007987
Si		2.84890007		1.37429401		7.11276904		0.00000000		-0.00043487		 0.00007987
O		0.00000000		2.86550004		1.75665685		0.00000000		-0.00000000		-0.00054981
O		0.00000000		8.59650012		6.29401624		0.00000000		0.00000000		 0.00054981
O		2.84890007		8.59650012		5.78199311		0.00000000		 0.00000001		-0.00054983
O		2.84890007		2.86550004		2.26867998		0.00000000		-0.00000001		 0.00054983
O		0.00000000		2.86550004		5.76186621		0.00000000		 0.00000001		 0.00074460
O		0.00000000		8.59650012		2.28880632		0.00000000		-0.00000001		-0.00074460
O		2.84890007		8.59650012		1.73652994		0.00000000		-0.00000001		 0.00074457
O		2.84890007		2.86550004		6.31414315		0.00000000		 0.00000001		-0.00074457
O		0.00000000		11.34508700		2.06499787		0.00000000		-0.00013714		-0.00026425
O		0.00000000		0.11691316		5.98567522		0.00000000		 0.00013714		 0.00026425
O		0.00000000		5.84791324		2.06499787		0.00000000		 0.00013715		-0.00026421
O		0.00000000		5.61408692		5.98567522		0.00000000		-0.00013715		 0.00026421
O		2.84890007		5.61408692		6.09033413		0.00000000		-0.00013713		-0.00026423
O		2.84890007		5.84791324		1.96033896		0.00000000		 0.00013713		 0.00026423
O		2.84890007		0.11691316		6.09033413		0.00000000		 0.00013714		-0.00026419
O		2.84890007		11.34508700		1.96033896		0.00000000		-0.00013714		 0.00026419
O		1.48199782		1.40524104		7.99512296		-0.00052535		-0.00004441		-0.00017680
O		4.21580232		10.05675798		0.05555013		 0.00052535		 0.00004441		 0.00017680
O		4.21580232		4.32575904		7.99512296		 0.00052534		 0.00004440		-0.00017681
O		1.48199782		7.13624112		0.05555013		-0.00052534		-0.00004440		 0.00017681
O		4.21580232		7.13624112		0.05555013		 0.00052534		-0.00004440		 0.00017681
O		1.48199782		4.32575904		7.99512296		-0.00052534		 0.00004440		-0.00017681
O		1.48199782		10.05675798		0.05555013		-0.00052535		 0.00004441		 0.00017680
O		4.21580232		1.40524104		7.99512296		 0.00052535		-0.00004441		-0.00017680
O		4.33089789		7.13624112		3.96978727		-0.00052533		-0.00004439		-0.00017682
O		1.36690225		4.32575904		4.08088582		 0.00052533		 0.00004439		 0.00017682
O		1.36690225		10.05675798		3.96978727		 0.00052533		 0.00004440		-0.00017683
O		4.33089789		1.40524104		4.08088582		-0.00052533		-0.00004440		 0.00017683
O		1.36690225		1.40524104		4.08088582		 0.00052533		-0.00004440		 0.00017683
O		4.33089789		10.05675798		3.96978727		-0.00052533		 0.00004440		-0.00017683
O		4.33089789		4.32575904		4.08088582		-0.00052533		 0.00004439		 0.00017682
O		1.36690225		7.13624112		3.96978727		 0.00052533		-0.00004439		-0.00017682
