# total energy = -24711.3529551 eV	

CRYSTAL	
PRIMVEC	
		9.27319965		0.00000000		0.00000000	
		0.00000000		8.72660017		-1.04719462	
		0.00000000		-0.63860817		5.32170382	
PRIMCOORD
   40 1	
Mg		0.00000000		7.73617608		0.38292565		 0.00031325		 0.00031588		 0.00052183	
Mg		0.00000000		0.35181870		3.89158169		-0.00031325		-0.00031588		-0.00052183	
Mg		4.63659983		4.71511879		3.36798624		 0.00031325		-0.00031588		-0.00052183	
Mg		4.63659983		3.37287692		0.90652203		-0.00031325		 0.00031588		 0.00052183	
Mg		0.00000000		2.15027974		1.05323332		 0.00009397		-0.00050099		 0.00047372	
Mg		0.00000000		5.93771598		3.22127495		-0.00009397		 0.00050099		-0.00047372	
Mg		4.63659983		1.57441589		3.74487040		 0.00009397		 0.00050099		-0.00047372	
Mg		4.63659983		6.51357982		0.52963694		-0.00009397		-0.00050099		 0.00047372	
Si		2.70591966		0.75682570		0.25850157		 0.00053712		-0.00034154		-0.00025070	
Si		6.56727999		7.33117001		4.01600578		-0.00053712		 0.00034154		 0.00025070	
Si		1.93068017		3.20211003		2.58760198		-0.00033136		-0.00024783		-0.00014517	
Si		7.34251948		4.88588476		1.68690629		 0.00033136		 0.00024783		 0.00014517	
Si		6.56727999		0.52258560		2.21050175		-0.00033136		 0.00024783		 0.00014517	
Si		2.70591966		7.56541011		2.06400560		 0.00033136		-0.00024783		-0.00014517	
Si		7.34251948		2.96786993		4.53960216		 0.00053712		 0.00034154		 0.00025070	
Si		1.93068017		5.12012486		-0.26509389		-0.00053712		-0.00034154		-0.00025070	
O		1.08774632		0.76623243		0.32346126		 0.00065228		 0.00034643		 0.00045088	
O		8.18545333		7.32176328		3.95104609		-0.00065228		-0.00034643		-0.00045088	
O		3.54885351		3.17661058		2.65674944		-0.00043406		 0.00030721		-0.00024707	
O		5.72434614		4.91138513		1.61775790		 0.00043406		-0.00030721		 0.00024707	
O		8.18545333		0.54808505		2.14135428		-0.00043406		-0.00030721		 0.00024707	
O		1.08774632		7.53991067		2.13315399		 0.00043406		 0.00030721		-0.00024707	
O		5.72434614		2.95846412		4.47464154		 0.00065228		-0.00034643		-0.00045088	
O		3.54885351		5.12953159		-0.20013419		-0.00065228		 0.00034643		 0.00045088	
O		3.49321524		2.14218423		0.11009328		-0.00044405		 0.00023751		-0.00023065	
O		5.77998442		5.94581148		4.16441499		 0.00044405		-0.00023751		 0.00023065	
O		1.14338459		1.81240978		2.77219893		 0.00020761		-0.00057906		-0.00082184	
O		8.12981506		6.27558593		1.50230935		-0.00020761		 0.00057906		 0.00082184	
O		5.77998442		1.91228585		2.02590480		 0.00020761		 0.00057906		 0.00082184	
O		3.49321524		6.17570986		2.24860254		-0.00020761		-0.00057906		-0.00082184	
O		8.12981506		1.58251232		4.68801044		-0.00044405		-0.00023751		 0.00023065	
O		1.14338459		6.50548246		-0.41350310		 0.00044405		 0.00023751		-0.00023065	
O		3.24747452		8.31764187		0.51875670		 0.00029458		-0.00024594		 0.00003306	
O		6.02572513		-0.22964615		3.75575157		-0.00029458		 0.00024594		-0.00003306	
O		1.38912531		4.08358700		3.64937685		 0.00024721		-0.00031403		-0.00001185	
O		7.88407434		4.00440871		0.62513143		-0.00024721		 0.00031403		 0.00001185	
O		6.02572513		8.36770880		0.10153504		 0.00024721		 0.00031403		 0.00001185	
O		3.24747452		-0.27971308		4.17297323		-0.00024721		-0.00031403		-0.00001185	
O		7.88407434		4.13365301		3.23215612		 0.00029458		 0.00024594		-0.00003306	
O		1.38912531		3.95434178		1.04235308		-0.00029458		-0.00024594		 0.00003306	
