# total energy = -24715.9164601 eV	

CRYSTAL	
PRIMVEC	
		9.27319965		0.00000000		0.00000000	
		0.00000000		8.72660017		0.34906178	
		0.00000000		0.21286630		5.32170382	
PRIMCOORD
   40 1	
Mg		0.00000000		7.94904331		1.64625815		-0.00003110		 0.00037697		-0.00054861	
Mg		0.00000000		0.99042316		4.02450559		 0.00003110		-0.00037697		 0.00054861	
Mg		4.63659983		5.35372325		4.19903741		-0.00003110		-0.00037697		 0.00054861	
Mg		4.63659983		3.58574508		1.47172633		 0.00003110		 0.00037697		-0.00054861	
Mg		0.00000000		2.36314789		1.42282226		 0.00045477		 0.00029295		-0.00038707	
Mg		0.00000000		6.57631951		4.24794148		-0.00045477		-0.00029295		 0.00038707	
Mg		4.63659983		2.21302035		4.07340966		 0.00045477		-0.00029295		 0.00038707	
Mg		4.63659983		6.72644797		1.59735408		-0.00045477		 0.00029295		-0.00038707	
Si		2.70591966		0.81353410		0.38640032		 0.00051322		-0.00007613		-0.00034355	
Si		6.56727999		8.12593330		5.28436342		-0.00051322		 0.00007613		 0.00034355	
Si		1.93068017		3.68455380		3.15783328		 0.00010497		-0.00014866		-0.00004558	
Si		7.34251948		5.25491267		2.51293046		-0.00010497		 0.00014866		 0.00004558	
Si		6.56727999		0.89161351		2.33839865		 0.00010497		 0.00014866		 0.00004558	
Si		2.70591966		8.04785389		3.33236510		-0.00010497		-0.00014866		-0.00004558	
Si		7.34251948		3.76263414		5.10983160		 0.00051322		 0.00007613		 0.00034355	
Si		1.93068017		5.17683325		0.56093121		-0.00051322		-0.00007613		-0.00034355	
O		1.08774632		0.83366899		0.45415124		 0.00039153		-0.00050373		 0.00001964	
O		8.18545333		8.10579840		5.21661250		-0.00039153		 0.00050373		-0.00001964	
O		3.54885351		3.66978252		3.22418766		 0.00018159		-0.00026456		 0.00040917	
O		5.72434614		5.26968395		2.44657608		-0.00018159		 0.00026456		-0.00040917	
O		8.18545333		0.90638479		2.27204427		 0.00018159		 0.00026456		-0.00040917	
O		1.08774632		8.03308261		3.39871948		-0.00018159		-0.00026456		 0.00040917	
O		5.72434614		3.74249924		5.04208068		 0.00039153		 0.00050373		-0.00001964	
O		3.54885351		5.19696908		0.62868306		-0.00039153		-0.00050373		 0.00001964	
O		3.49321524		2.20178680		0.45999429		 0.00003304		 0.00054347		 0.00038011	
O		5.77998442		6.73768060		5.21076946		-0.00003304		-0.00054347		-0.00038011	
O		1.14338459		2.29774865		3.12042612		 0.00022675		-0.00050749		-0.00045414	
O		8.12981506		6.64171875		2.55033855		-0.00022675		 0.00050749		 0.00045414	
O		5.77998442		2.27841866		2.37580673		 0.00022675		 0.00050749		 0.00045414	
O		3.49321524		6.66104873		3.29495794		-0.00022675		-0.00050749		-0.00045414	
O		8.12981506		2.37438051		5.03623764		 0.00003304		-0.00054347		-0.00038011	
O		1.14338459		6.56508595		0.63452610		-0.00003304		 0.00054347		 0.00038011	
O		3.24747452		8.56388797		1.87912860		-0.00020372		-0.00039362		-0.00089462	
O		6.02572513		0.37558035		3.79163515		 0.00020372		 0.00039362		 0.00089462	
O		1.38912531		4.75556849		4.38338862		 0.00018203		-0.00012710		-0.00018728	
O		7.88407434		4.18389891		1.28737512		-0.00018203		 0.00012710		 0.00018728	
O		6.02572513		8.54719900		1.46190694		 0.00018203		 0.00012710		 0.00018728	
O		3.24747452		0.39226933		4.20885680		-0.00018203		-0.00012710		-0.00018728	
O		7.88407434		4.73887951		3.96616696		-0.00020372		 0.00039362		 0.00089462	
O		1.38912531		4.20058789		1.70459678		 0.00020372		-0.00039362		-0.00089462	
