# total energy = -24707.9865976 eV	

CRYSTAL	
PRIMVEC	
		9.27319965		0.00000000		0.00000000	
		0.00000000		8.72660017		1.39625640	
		0.00000000		0.85147447		5.32170382	
PRIMCOORD
   40 1	
Mg		0.00000000		8.10869442		2.59375660		 0.00001267		 0.00031711		 0.00028864	
Mg		0.00000000		1.46937558		4.12419898		-0.00001267		-0.00031711		-0.00028864	
Mg		4.63659983		5.83267566		4.82232718		 0.00001267		-0.00031711		-0.00028864	
Mg		4.63659983		3.74539619		1.89562933		-0.00001267		 0.00031711		 0.00028864	
Mg		0.00000000		2.52279900		1.70001396		-0.00017273		-0.00014878		-0.00060142	
Mg		0.00000000		7.05527285		5.01794161		 0.00017273		 0.00014878		 0.00060142	
Mg		4.63659983		2.69197277		4.31981342		-0.00017273		 0.00014878		 0.00060142	
Mg		4.63659983		6.88609909		2.39814216		 0.00017273		-0.00014878		-0.00060142	
Si		2.70591966		0.85606470		0.48232230		-0.00026628		-0.00011297		-0.00008750	
Si		6.56727999		8.72200623		6.23563421		 0.00026628		 0.00011297		 0.00008750	
Si		1.93068017		4.04638663		3.58550583		-0.00004392		 0.00053702		-0.00034365	
Si		7.34251948		5.53168337		3.13244975		 0.00004392		-0.00053702		 0.00034365	
Si		6.56727999		1.16838514		2.43432155		-0.00004392		-0.00053702		 0.00034365	
Si		2.70591966		8.40968672		4.28363403		 0.00004392		 0.00053702		-0.00034365	
Si		7.34251948		4.35870707		5.53750601		-0.00026628		 0.00011297		 0.00008750	
Si		1.93068017		5.21936386		1.18044957		 0.00026628		-0.00011297		-0.00008750	
O		1.08774632		0.88424595		0.55216804		-0.00011868		-0.00028459		-0.00001806	
O		8.18545333		8.69382590		6.16578754		 0.00011868		 0.00028459		 0.00001806	
O		3.54885351		4.03966264		3.64976725		-0.00016350		-0.00050263		 0.00007437	
O		5.72434614		5.53840922		3.06818926		 0.00016350		 0.00050263		-0.00007437	
O		8.18545333		1.17510913		2.37006106		-0.00016350		 0.00050263		-0.00007437	
O		1.08774632		8.40296272		4.34789452		 0.00016350		-0.00050263		 0.00007437	
O		5.72434614		4.33052489		5.46765934		-0.00011868		 0.00028459		 0.00001806	
O		3.54885351		5.24754604		1.25029624		 0.00011868		-0.00028459		-0.00001806	
O		3.49321524		2.24648918		0.72242120		-0.00049968		-0.00002769		 0.00022796	
O		5.77998442		7.33158267		5.99553438		 0.00049968		 0.00002769		-0.00022796	
O		1.14338459		2.66175326		3.38159466		 0.00021721		 0.00050071		-0.00025232	
O		8.12981506		6.91631859		3.33636092		-0.00021721		-0.00050071		 0.00025232	
O		5.77998442		2.55301851		2.63823272		 0.00021721		-0.00050071		 0.00025232	
O		3.49321524		7.02505242		4.07972286		-0.00021721		 0.00050071		-0.00025232	
O		8.12981506		2.96828259		5.29740711		-0.00049968		 0.00002769		-0.00022796	
O		1.14338459		6.60978834		1.42054940		 0.00049968		-0.00002769		 0.00022796	
O		3.24747452		8.74857209		2.89940775		-0.00067317		-0.00008460		-0.00042009	
O		6.02572513		0.82949976		3.81854783		 0.00067317		 0.00008460		 0.00042009	
O		1.38912531		5.25955483		4.93389675		 0.00059499		-0.00024553		 0.00038873	
O		7.88407434		4.31851702		1.78405883		-0.00059499		 0.00024553		-0.00038873	
O		6.02572513		8.68181711		2.48218702		 0.00059499		 0.00024553		-0.00038873	
O		3.24747452		0.89625475		4.23576855		-0.00059499		-0.00024553		 0.00038873	
O		7.88407434		5.19279985		4.51667603		-0.00067317		 0.00008460		 0.00042009	
O		1.38912531		4.38527200		2.20127955		 0.00067317		-0.00008460		-0.00042009	
