# total energy = -24707.9865974 eV	

CRYSTAL	
PRIMVEC	
		9.27319965		0.00000000		0.00000000	
		0.00000000		8.72660017		-1.39625640	
		0.00000000		-0.85147447		5.32170382	
PRIMCOORD
   40 1	
Mg		0.00000000		7.68295904		0.06709345		-0.00001271		 0.00031709		-0.00028860	
Mg		0.00000000		0.19216759		3.85835211		 0.00001271		-0.00031709		 0.00028860	
Mg		4.63659983		4.55546767		3.16022391		-0.00001271		-0.00031709		 0.00028860	
Mg		4.63659983		3.31965989		0.76522073		 0.00001271		 0.00031709		-0.00028860	
Mg		0.00000000		2.09706270		0.96083609		 0.00017271		-0.00014875		 0.00060147	
Mg		0.00000000		5.77806486		2.96460762		-0.00017271		 0.00014875		-0.00060147	
Mg		4.63659983		1.41476478		3.66273582		 0.00017271		 0.00014875		-0.00060147	
Mg		4.63659983		6.46036278		0.26270789		-0.00017271		-0.00014875		 0.00060147	
Si		2.70591966		0.74264883		0.22652758		 0.00004395		-0.00053702		-0.00034361	
Si		6.56727999		7.13247873		3.69891613		-0.00004395		 0.00053702		 0.00034361	
Si		1.93068017		3.08149908		2.44504415		 0.00026622		 0.00011300		-0.00008756	
Si		7.34251948		4.79362755		1.48039956		-0.00026622		-0.00011300		 0.00008756	
Si		6.56727999		0.43032932		2.17852776		 0.00026622		-0.00011300		 0.00008756	
Si		2.70591966		7.44479917		1.74691688		-0.00026622		 0.00011300		-0.00008756	
Si		7.34251948		2.76917864		4.39704340		 0.00004395		 0.00053702		 0.00034361	
Si		1.93068017		5.10594799		-0.47159970		-0.00004395		-0.00053702		-0.00034361	
O		1.08774632		0.74937283		0.29078899		 0.00016349		 0.00050262		 0.00007426	
O		8.18545333		7.12575473		3.63465471		-0.00016349		-0.00050262		-0.00007426	
O		3.54885351		3.05331690		2.51488989		 0.00011876		 0.00028462		-0.00001804	
O		5.72434614		4.82180973		1.41055382		-0.00011876		-0.00028462		 0.00001804	
O		8.18545333		0.45850965		2.10868202		 0.00011876		-0.00028462		 0.00001804	
O		1.08774632		7.41661791		1.81676169		-0.00011876		 0.00028462		-0.00001804	
O		5.72434614		2.76245465		4.33278291		 0.00016349		-0.00050262		-0.00007426	
O		3.54885351		5.11267291		-0.40733920		-0.00016349		 0.00050262		 0.00007426	
O		3.49321524		2.12728313		0.02261733		-0.00021723		-0.00050070		-0.00025231	
O		5.77998442		5.74784443		3.90282730		 0.00021723		 0.00050070		 0.00025231	
O		1.14338459		1.69107460		2.68514305		 0.00049968		 0.00002768		 0.00022798	
O		8.12981506		6.18405296		1.24030065		-0.00049968		-0.00002768		-0.00022798	
O		5.77998442		1.82075288		1.93842885		 0.00049968		-0.00002768		-0.00022798	
O		3.49321524		6.05437468		1.98701486		-0.00049968		 0.00002768		 0.00022798	
O		8.12981506		1.38454527		4.60095457		-0.00021723		 0.00050070		 0.00025231	
O		1.14338459		6.49058321		-0.67551087		 0.00021723		-0.00050070		-0.00025231	
O		3.24747452		8.25608080		0.17866303		-0.00059499		 0.00024552		 0.00038881	
O		6.02572513		-0.38095324		3.74678068		 0.00059499		-0.00024552		-0.00038881	
O		1.38912531		3.91559186		3.46587413		 0.00067321		 0.00008456		-0.00042011	
O		7.88407434		3.95953570		0.45956957		-0.00067321		-0.00008456		 0.00042011	
O		6.02572513		8.32283578		-0.23855770		 0.00067321		-0.00008456		 0.00042011	
O		3.24747452		-0.44770822		4.16400141		-0.00067321		 0.00008456		-0.00042011	
O		7.88407434		3.98234684		3.04865248		-0.00059499		-0.00024552		-0.00038881	
O		1.38912531		3.89278072		0.87679123		 0.00059499		 0.00024552		 0.00038881	
