# total energy = -24711.3529551 eV	

CRYSTAL	
PRIMVEC	
		9.27319965		0.00000000		0.00000000	
		0.00000000		8.72660017		1.04719462	
		0.00000000		0.63860817		5.32170382	
PRIMCOORD
   40 1	
Mg		0.00000000		8.05547738		2.27792347		-0.00031323		 0.00031585		-0.00052184	
Mg		0.00000000		1.30972539		4.09096754		 0.00031323		-0.00031585		 0.00052184	
Mg		4.63659983		5.67302455		4.61456392		-0.00031323		-0.00031585		 0.00052184	
Mg		4.63659983		3.69217915		1.75432802		 0.00031323		 0.00031585		-0.00052184	
Mg		0.00000000		2.46958196		1.60761673		-0.00009399		-0.00050101		-0.00047371	
Mg		0.00000000		6.89562174		4.76127521		 0.00009399		 0.00050101		 0.00047371	
Mg		4.63659983		2.53232165		4.23767883		-0.00009399		 0.00050101		 0.00047371	
Mg		4.63659983		6.83288205		2.13121311		 0.00009399		-0.00050101		-0.00047371	
Si		2.70591966		0.84188783		0.45034830		 0.00033135		 0.00024786		-0.00014514	
Si		6.56727999		8.52331587		5.91854364		-0.00033135		-0.00024786		 0.00014514	
Si		1.93068017		3.92577569		3.44294893		-0.00053708		 0.00034160		-0.00025070	
Si		7.34251948		5.43942709		2.92594394		 0.00053708		-0.00034160		 0.00025070	
Si		6.56727999		1.07612793		2.40234756		-0.00053708		-0.00034160		 0.00025070	
Si		2.70591966		8.28907577		3.96654531		 0.00053708		 0.00034160		-0.00025070	
Si		7.34251948		4.16001578		5.39494818		 0.00033135		-0.00024786		 0.00014514	
Si		1.93068017		5.20518699		0.97394376		-0.00033135		 0.00024786		-0.00014514	
O		1.08774632		0.86738728		0.51949577		 0.00043406		-0.00030723		-0.00024708	
O		8.18545333		8.49781643		5.84939617		-0.00043406		 0.00030723		 0.00024708	
O		3.54885351		3.91636988		3.50790769		-0.00065230		-0.00034642		 0.00045088	
O		5.72434614		5.44883382		2.86098518		 0.00065230		 0.00034642		-0.00045088	
O		8.18545333		1.08553373		2.33738879		-0.00065230		 0.00034642		-0.00045088	
O		1.08774632		8.27966997		4.03150407		 0.00065230		-0.00034642		 0.00045088	
O		5.72434614		4.13451727		5.32579979		 0.00043406		 0.00030723		 0.00024708	
O		3.54885351		5.23068643		1.04309215		-0.00043406		-0.00030723		-0.00024708	
O		3.49321524		2.23158808		0.63494525		-0.00020764		 0.00057906		-0.00082182	
O		5.77998442		7.13361562		5.73394669		 0.00020764		-0.00057906		 0.00082182	
O		1.14338459		2.54041808		3.29453879		 0.00044402		-0.00023752		-0.00023067	
O		8.12981506		6.82478469		3.07435315		-0.00044402		 0.00023752		 0.00023067	
O		5.77998442		2.46148553		2.55075677		 0.00044402		 0.00023752		 0.00023067	
O		3.49321524		6.90371817		3.81813517		-0.00044402		-0.00023752		-0.00023067	
O		8.12981506		2.77031554		5.21035123		-0.00020764		-0.00057906		 0.00082182	
O		1.14338459		6.59488816		1.15854071		 0.00020764		 0.00057906		-0.00082182	
O		3.24747452		8.68701103		2.55931501		-0.00024722		 0.00031406		-0.00001180	
O		6.02572513		0.67819267		3.80957693		 0.00024722		-0.00031406		 0.00001180	
O		1.38912531		5.09155969		4.75039497		-0.00029459		 0.00024592		 0.00003302	
O		7.88407434		4.27364401		1.61849790		 0.00029459		-0.00024592		-0.00003302	
O		6.02572513		8.63694409		2.14209335		-0.00029459		-0.00024592		-0.00003302	
O		3.24747452		0.72825961		4.22679859		 0.00029459		 0.00024592		 0.00003302	
O		7.88407434		5.04149276		4.33317239		-0.00024722		-0.00031406		 0.00001180	
O		1.38912531		4.32371094		2.03571863		 0.00024722		 0.00031406		-0.00001180	
