# total energy = -12280.9990839 eV	

CRYSTAL	
PRIMVEC	
		3.10239541		0.00000000		0.00000000	
		-1.55119928		2.68675254		0.00000000	
		0.00000314		-0.00000629		20.73463385	
PRIMCOORD
   22 1	
O		0.00000000		1.79116480		13.83780822		 0.00000007		-0.00000007		-0.00028154	
O		1.55119896		0.89558208		6.89684104		-0.00000004		 0.00000001		 0.00020247	
O		1.55120022		0.89557957		15.93072646		-0.00000004		-0.00000004		 0.00047781	
O		0.00000000		1.79116637		4.80392028		 0.00000003		 0.00000009		-0.00051144	
O		0.00000000		1.79116606		9.31624310		 0.00000002		-0.00000015		 0.00011209	
O		1.55119928		0.89558020		11.41839327		-0.00000003		 0.00000015		-0.00011728	
O		0.00000000		1.79116228		18.47695579		-0.00000019		 0.00000025		 0.00016215	
O		1.55119770		0.89558429		2.25768058		 0.00000009		-0.00000026		-0.00017186	
O		0.00000000		0.00000000		0.00000000		 0.00000008		 0.00000007		 0.00000180	
H		0.00000000		1.79116480		12.87281015		 0.00000003		-0.00000004		-0.00016452	
H		1.55119896		0.89558146		7.86179636		-0.00000004		 0.00000006		 0.00023918	
H		0.00000000		1.79116606		8.35084210		 0.00000004		-0.00000006		 0.00064113	
H		1.55119959		0.89558051		12.38379081		-0.00000003		 0.00000005		-0.00063343	
H		0.00000000		1.79116386		17.51219156		 0.00000003		-0.00000008		-0.00015488	
H		1.55119833		0.89558240		3.22243789		-0.00000003		 0.00000009		 0.00016686	
H		1.55120022		0.89557894		16.89277293		-0.00000005		 0.00000009		 0.00014816	
H		0.00000000		1.79116731		3.84185715		 0.00000004		-0.00000010		-0.00011813	
Mg		0.00000000		-0.00000346		14.88698462		0.00000000		0.00000000		-0.00023220	
Mg		0.00000000		0.00000000		5.84764641		0.00000000		-0.00000001		 0.00023941	
Mg		1.55119959		0.89557988		19.52597158		 0.00000019		-0.00000032		-0.00006814	
Mg		0.00000000		1.79116637		1.20866447		-0.00000016		 0.00000026		 0.00006433	
Mg		0.00000000		0.00000000		10.36731818		0.00000000		 0.00000001		-0.00000197	
