# total energy = -12278.5478208 eV	

CRYSTAL	
PRIMVEC	
		3.39814226		0.00000314		0.00000000	
		-1.69906799		2.94286617		-0.00000314	
		-0.00002514		-0.00002829		30.17089680	
PRIMCOORD
   22 1	
O		-0.00001477		1.96187495		20.73078431		-0.00000009		 0.00000027		 0.00101339	
O		1.69905982		0.98094973		9.44003423		 0.00000022		-0.00000029		-0.00109868	
O		1.69905605		0.98093056		22.71020285		-0.00000014		-0.00000018		-0.00148581	
O		-0.00000911		1.96189286		7.46088504		-0.00000006		 0.00000032		 0.00106040	
O		-0.00001257		1.96194881		14.09788642		-0.00000015		-0.00000221		 0.00084445	
O		1.69905573		0.98100379		16.07353243		 0.00000026		-0.00000269		-0.00047490	
O		-0.00000943		1.96189946		28.00580082		 0.00000005		-0.00000026		 0.00131938	
O		1.69906799		0.98091862		2.16459184		 0.00000009		 0.00000003		-0.00108897	
O		0.00000503		-0.00002734		-0.00019864		-0.00000003		 0.00000084		-0.00000829	
H		-0.00001540		1.96187401		19.76802437		 0.00000002		 0.00000003		-0.00112691	
H		1.69906453		0.98095225		10.40273288		-0.00000014		-0.00000011		 0.00123969	
H		-0.00001917		1.96191141		13.13528458		 0.00000022		 0.00000110		-0.00147219	
H		1.69905982		0.98096639		17.03633196		-0.00000011		 0.00000112		 0.00111393	
H		-0.00001886		1.96188218		27.04229034		 0.00000026		 0.00000016		-0.00109218	
H		1.69907616		0.98093622		3.12822238		-0.00000022		-0.00000042		 0.00087693	
H		1.69905510		0.98093370		23.67287635		 0.00000003		-0.00000011		 0.00062450	
H		-0.00001446		1.96189098		6.49800756		 0.00000018		 0.00000007		-0.00026179	
Mg		-0.00001854		-0.00003143		21.71999981		 0.00000023		 0.00000012		 0.00011620	
Mg		-0.00001069		-0.00001320		8.45087530		-0.00000011		 0.00000004		-0.00008691	
Mg		1.69906453		0.98095822		28.97130994		-0.00000071		-0.00000228		 0.00001771	
Mg		-0.00000409		1.96186426		1.19915878		 0.00000039		 0.00000214		-0.00002262	
Mg		-0.00001446		0.00002012		15.08575013		-0.00000017		 0.00000232		-0.00000732	
