# total energy = -12279.8137303 eV	

CRYSTAL	
PRIMVEC	
		3.23724896		0.00000000		0.00000000	
		-1.61862605		2.80354013		0.00000000	
		0.00000000		0.00000000		28.94927563	
PRIMCOORD
   22 1	
O		0.00000000		1.86902633		19.76950598		-0.00000007		-0.00000004		-0.00031171	
O		1.61862417		0.93451254		9.17970301		-0.00000003		 0.00000012		 0.00061683	
O		1.61862417		0.93451222		21.82176009		-0.00000002		 0.00000007		-0.00026384	
O		0.00000000		1.86902728		7.12737410		 0.00000009		-0.00000009		 0.00081886	
O		0.00000000		1.86902633		13.44952799		 0.00000006		-0.00000000		-0.00028863	
O		1.61862385		0.93451317		15.49970112		-0.00000003		-0.00000001		-0.00002076	
O		0.00000000		1.86902728		26.72817800		-0.00000009		-0.00000004		-0.00022835	
O		1.61862511		0.93451380		2.22126421		-0.00000000		-0.00000015		-0.00007828	
O		0.00000000		0.00000000		0.00004023		 0.00000005		 0.00000033		 0.00000131	
H		0.00000000		1.86902602		18.80801110		-0.00000001		 0.00000001		 0.00007242	
H		1.61862417		0.93451411		10.14135724		-0.00000001		-0.00000003		-0.00036289	
H		0.00000000		1.86902633		12.48828644		-0.00000002		0.00000000		-0.00045781	
H		1.61862417		0.93451380		16.46078521		-0.00000001		-0.00000002		 0.00074519	
H		0.00000000		1.86902696		25.76613404		 0.00000002		-0.00000001		 0.00023064	
H		1.61862479		0.93451348		3.18315259		0.00000000		-0.00000002		 0.00005067	
H		1.61862417		0.93451317		22.78295764		0.00000000		-0.00000002		-0.00038539	
H		0.00000000		1.86902759		6.16645848		-0.00000002		-0.00000002		-0.00012959	
Mg		0.00000000		0.00000000		20.79592109		 0.00000008		-0.00000002		-0.00032740	
Mg		0.00000000		0.00000000		8.15337402		-0.00000003		 0.00000001		 0.00027330	
Mg		1.61862448		0.93451442		27.73558644		 0.00000005		-0.00000010		 0.00001510	
Mg		0.00000000		1.86902633		1.21376619		-0.00000002		-0.00000001		 0.00000782	
Mg		0.00000000		0.00000000		14.47457055		 0.00000001		 0.00000004		 0.00002248	
