# total energy = -12279.3298418 eV	

CRYSTAL	
PRIMVEC	
		3.31090202		0.00000000		0.00000000	
		-1.65544944		2.86732417		0.00000000	
		-0.00000314		0.00000000		29.66569101	
PRIMCOORD
   22 1	
O		-0.00000377		1.91154861		20.33301191		 0.00000009		 0.00000004		 0.00023336	
O		1.65545038		0.95577399		9.33283405		-0.00000008		 0.00000004		-0.00031558	
O		1.65544787		0.95577525		22.35070182		-0.00000009		-0.00000007		-0.00067712	
O		0.00000000		1.91154861		7.31501685		 0.00000008		-0.00000000		 0.00104745	
O		0.00000000		1.91154923		13.82294403		 0.00000005		 0.00000001		 0.00062512	
O		1.65544944		0.95577525		15.84258888		-0.00000007		-0.00000003		-0.00058053	
O		0.00000000		1.91154923		27.47084717		-0.00000006		-0.00000000		 0.00040600	
O		1.65544849		0.95577525		2.19472440		 0.00000005		 0.00000003		-0.00026501	
O		0.00000000		0.00000000		-0.00003457		0.00000000		 0.00000004		-0.00000444	
H		0.00000000		1.91154798		19.37096858		-0.00000002		 0.00000004		-0.00060049	
H		1.65545007		0.95577493		10.29483904		 0.00000001		-0.00000002		 0.00067051	
H		0.00000000		1.91154861		12.86084318		 0.00000002		 0.00000002		-0.00042715	
H		1.65544912		0.95577525		16.80471330		 0.00000001		-0.00000000		 0.00038466	
H		0.00000000		1.91154923		26.50810326		 0.00000003		-0.00000001		-0.00041794	
H		1.65545007		0.95577430		3.15754123		-0.00000003		 0.00000003		 0.00028640	
H		1.65544724		0.95577462		23.31272660		 0.00000002		 0.00000001		-0.00013143	
H		0.00000000		1.91154986		6.35318127		 0.00000001		-0.00000004		-0.00021141	
Mg		0.00000000		0.00000000		21.34129379		0.00000000		-0.00000001		 0.00013082	
Mg		0.00000000		0.00000000		8.32453142		-0.00000002		 0.00000003		-0.00014726	
Mg		1.65544849		0.95577462		28.45827871		-0.00000006		-0.00000000		 0.00008827	
Mg		0.00000000		1.91155018		1.20733718		 0.00000009		-0.00000009		-0.00009334	
Mg		0.00000000		0.00000000		14.83277604		-0.00000002		-0.00000002		-0.00000086	
