# total energy = -9073.55501206 eV

CRYSTAL
PRIMVEC
		5.11310074		0.00000000		0.61357085
		0.00000000		5.18980161		0.00000000
		0.87579779		0.00000000		7.32984013
PRIMECORD
   28 1
Mg		4.10066789		2.66755703		2.30548971		 0.00025072		-0.00012036		-0.00007484
Mg		1.88823012		0.07265725		5.63791973		-0.00025072		-0.00012036		 0.00007484
Si		1.49722412		0.06746679		1.98585300		-0.00024928		-0.00016683		 0.00020834
Si		4.49167287		2.66236708		5.95755798		 0.00024928		-0.00016683		-0.00020834
O		2.27819020		5.07043376		3.75570919		 0.00032519		-0.00038802		 0.00064423
O		3.71070781		2.47553399		4.18770180		-0.00032519		-0.00038802		-0.00064423
O		5.26913607		2.85439011		7.69809388		 0.00072569		 0.00042530		-0.00072990
O		0.71976195		0.25948982		0.24531608		-0.00072569		 0.00042530		 0.00072990
O		5.24450981		4.16740908		5.63608795		-0.00016012		-0.00013979		 0.00005278
O		0.74438821		1.57250879		2.30732201		 0.00016012		-0.00013979		-0.00005278
O		3.00328475		3.43045819		6.15463810		 0.00051357		-0.00030430		 0.00005733
O		2.98561275		0.83555790		1.78877288		-0.00051357		-0.00030430		-0.00005733
O		5.12747379		4.35424216		2.92721370		-0.00040949		-0.00027325		 0.00026664
O		0.86142423		1.75934187		5.01619574		 0.00040949		-0.00027325		-0.00026664
O		2.15686596		3.65880882		1.55927797		 0.00042713		 0.00076402		-0.00017770
O		3.83203206		1.06390905		6.38413302		-0.00042713		 0.00076402		 0.00017770
H		2.76495178		4.16740908		3.86469301		 0.00025562		-0.00011808		-0.00041819
H		3.22394572		1.57250879		4.07871695		-0.00025562		-0.00011808		 0.00041819
H		5.78657593		3.62767014		7.81076082		 0.00050126		 0.00035068		 0.00018270
H		0.20232209		1.03276986		0.13265016		-0.00050126		 0.00035068		-0.00018270
H		2.24247594		2.83363082		5.86104796		-0.00017825		 0.00031462		 0.00073426
H		3.74642207		0.23873105		2.08236302		 0.00017825		 0.00031462		-0.00073426
H		4.60286079		4.93549916		5.83363001		 0.00016884		-0.00017561		-0.00026964
H		1.38603722		2.34059990		2.10977995		-0.00016884		-0.00017561		 0.00026964
H		5.17047911		4.42170895		3.83546799		 0.00024698		-0.00047460		-0.00006565
H		0.81841891		1.82681021		4.10794196		-0.00024698		-0.00047460		 0.00006565
H		2.15301495		3.59653095		0.64127308		-0.00012244		 0.00030624		 0.00018985
H		3.83588306		1.00163118		7.30213688		 0.00012244		 0.00030624		-0.00018985
