# total energy = -9073.59731886 eV

CRYSTAL
PRIMVEC
		5.11310074		0.00000000		-0.61357085
		0.00000000		5.18980161		0.00000000
		-0.88347611		0.00000000		7.33075679
PRIMECORD
   28 1
Mg		3.65909103		2.66755703		1.37431889		 0.00019492		 0.00000548		-0.00025021
Mg		0.57053515		0.07265725		5.34286808		-0.00019492		 0.00000548		 0.00025021
Si		1.05740693		0.06746679		1.67929674		 0.00028058		-0.00019271		-0.00003031
Si		3.17221976		2.66236708		5.03789074		-0.00028058		-0.00019271		 0.00003031
O		1.43022081		5.07043376		3.31069896		 0.00011691		-0.00039626		-0.00033200
O		2.79940485		2.47553399		3.40648801		-0.00011691		-0.00039626		 0.00033200
O		3.54856794		2.85439011		6.63997010		 0.00006212		 0.00011557		-0.00029589
O		0.68105824		0.25948982		0.07721687		-0.00006212		 0.00011557		 0.00029589
O		4.02533378		4.16740908		4.52370709		-0.00012873		 0.00047877		-0.00066628
O		0.20429188		1.57250879		2.19348091		 0.00012873		 0.00047877		 0.00066628
O		1.59234884		3.43045819		5.60316178		 0.00020963		-0.00061396		-0.00053957
O		2.63727682		0.83555790		1.11402622		-0.00020963		-0.00061396		 0.00053957
O		4.56450676		4.35424216		1.76417700		-0.00046037		-0.00075713		 0.00066138
O		-0.33488110		1.75934187		4.95301099		 0.00046037		-0.00075713		-0.00066138
O		1.84019707		3.65880882		1.07962979		-0.00025313		 0.00070671		-0.00011901
O		2.38942911		1.06390905		5.63755667		 0.00025313		 0.00070671		 0.00011901
H		1.90466771		4.16740908		3.30433898		 0.00004959		 0.00020778		-0.00002448
H		2.32495795		1.57250879		3.41284902		-0.00004959		 0.00020778		 0.00002448
H		4.05369415		3.62767014		6.62992802		-0.00063107		 0.00004204		-0.00057198
H		0.17593305		1.03276986		0.08725895		 0.00063107		 0.00004204		 0.00057198
H		0.88079977		2.83363082		5.48625502		-0.00042116		 0.00018742		 0.00004023
H		3.34882589		0.23873105		1.23093298		 0.00042116		 0.00018742		-0.00004023
H		3.31683287		4.93549916		4.88326697		-0.00025962		 0.00029327		 0.00022625
H		0.91279279		2.34059990		1.83392103		 0.00025962		 0.00029327		-0.00022625
H		4.38760297		4.42170895		2.68849810		 0.00007758		 0.00008662		 0.00007561
H		-0.15797576		1.82681021		4.02868887		-0.00007758		 0.00008662		-0.00007561
H		2.05977298		3.59653095		0.13573900		-0.00062616		-0.00016360		 0.00016164
H		2.16985319		1.00163118		6.58144900		 0.00062616		-0.00016360		-0.00016164
