# total energy = -92489.5581393 eV

CRYSTAL
PRIMVEC
		18.50000256		0.00000000		-2.21999584
		0.00000000		17.89999160		0.00000000
		-0.63239463		0.00000000		5.27000497
PRIMECORD
   164 1
Mg		2.16468832		3.04299764		1.71400001		 0.00021240		-0.00041606		 0.00062162
Mg		15.70291215		14.85699023		1.33599981		-0.00021240		 0.00041606		-0.00062162
Mg		6.28848827		14.85699023		3.81619977		 0.00010682		-0.00004546		-0.00012202
Mg		11.57911221		3.04299764		-0.76619995		-0.00010682		 0.00004546		 0.00012202
Mg		15.70291215		11.99299344		1.33599981		-0.00021240		-0.00041606		-0.00062162
Mg		2.16468832		5.90699630		1.71400001		 0.00021240		 0.00041606		 0.00062162
Mg		11.57911221		5.90699630		-0.76619995		-0.00010682		-0.00004546		 0.00012202
Mg		6.28848827		11.99299344		3.81619977		 0.00010682		 0.00004546		-0.00012202
Mg		1.85481123		1.43199933		4.29629983		-0.00003179		-0.00043600		 0.00009447
Mg		16.01278738		16.46799041		-1.24630002		 0.00003179		 0.00043600		-0.00009447
Mg		6.61101139		16.46799041		1.12850021		-0.00015910		-0.00034938		 0.00065687
Mg		11.25658722		1.43199933		1.92149961		 0.00015910		 0.00034938		-0.00065687
Mg		16.01278738		10.38199326		-1.24630002		 0.00003179		-0.00043600		-0.00009447
Mg		1.85481123		7.51799647		4.29629983		-0.00003179		 0.00043600		 0.00009447
Mg		11.25658722		7.51799647		1.92149961		 0.00015910		-0.00034938		-0.00065687
Mg		6.61101139		10.38199326		1.12850021		-0.00015910		 0.00034938		 0.00065687
Mg		2.16468832		17.54198990		1.71400001		-0.00063206		-0.00000719		 0.00033102
Mg		15.70291215		0.35799983		1.33599981		 0.00063206		 0.00000719		-0.00033102
Mg		6.28848827		0.35799983		3.81619977		 0.00005282		 0.00022082		-0.00048812
Mg		11.57911221		17.54198990		-0.76619995		-0.00005282		-0.00022082		 0.00048812
Mg		15.70291215		8.59199410		1.33599981		 0.00063206		-0.00000719		-0.00033102
Mg		2.16468832		9.30799563		1.71400001		-0.00063206		 0.00000719		 0.00033102
Mg		11.57911221		9.30799563		-0.76619995		-0.00005282		 0.00022082		 0.00048812
Mg		6.28848827		8.59199410		3.81619977		 0.00005282		-0.00022082		-0.00048812
Mg		1.85481123		4.47499697		4.29629983		 0.00008156		0.00000000		 0.00030097
Mg		16.01278738		13.42499277		-1.24630002		-0.00008156		0.00000000		-0.00030097
Mg		6.61101139		13.42499277		1.12850021		 0.00002805		0.00000000		 0.00040662
Mg		11.25658722		4.47499697		1.92149961		-0.00002805		0.00000000		-0.00040662
Si		0.37160358		14.67799125		1.46169989		-0.00011787		 0.00006083		-0.00013573
Si		17.49599689		3.22199849		1.58829993		 0.00011787		-0.00006083		 0.00013573
Si		8.19540404		3.22199849		3.11990048		 0.00008778		-0.00007151		-0.00032121
Si		9.67219457		14.67799125		-0.06990066		-0.00008778		 0.00007151		 0.00032121
Si		17.49599689		5.72799731		1.58829993		 0.00011787		 0.00006083		 0.00013573
Si		0.37160358		12.17199242		1.46169989		-0.00011787		-0.00006083		-0.00013573
Si		9.67219457		12.17199242		-0.06990066		-0.00008778		-0.00007151		 0.00032121
Si		8.19540404		5.72799731		3.11990048		 0.00008778		 0.00007151		-0.00032121
Si		0.05540440		16.46799041		4.09670051		-0.00019318		 0.00052719		-0.00062484
Si		17.81219607		1.43199933		-1.04670069		 0.00019318		-0.00052719		 0.00062484
Si		8.51160322		1.43199933		0.48489986		-0.00019996		-0.00040820		-0.00009031
Si		9.35599539		16.46799041		2.56509996		 0.00019996		 0.00040820		 0.00009031
Si		17.81219607		7.51799647		-1.04670069		 0.00019318		 0.00052719		 0.00062484
Si		0.05540440		10.38199326		4.09670051		-0.00019318		-0.00052719		-0.00062484
Si		9.35599539		10.38199326		2.56509996		 0.00019996		-0.00040820		 0.00009031
Si		8.51160322		7.51799647		0.48489986		-0.00019996		 0.00040820		-0.00009031
Si		4.04470403		16.46799041		-0.27759963		 0.00021752		-0.00006681		 0.00007914
Si		13.82289458		1.43199933		3.32759945		-0.00021752		 0.00006681		-0.00007914
Si		4.83850463		1.43199933		2.22419938		-0.00057554		-0.00004890		 0.00031647
Si		13.02909584		16.46799041		0.82580044		 0.00057554		 0.00004890		-0.00031647
Si		13.82289458		7.51799647		3.32759945		-0.00021752		-0.00006681		-0.00007914
Si		4.04470403		10.38199326		-0.27759963		 0.00021752		 0.00006681		 0.00007914
Si		13.02909584		10.38199326		0.82580044		 0.00057554		-0.00004890		-0.00031647
Si		4.83850463		7.51799647		2.22419938		-0.00057554		 0.00004890		 0.00031647
Si		3.72850299		14.67799125		2.35739913		 0.00003491		-0.00012061		 0.00004928
Si		14.13909376		3.22199849		0.69260069		-0.00003491		 0.00012061		-0.00004928
Si		5.15470381		3.22199849		-0.41079938		 0.00005092		-0.00011649		 0.00012300
Si		12.71289666		14.67799125		3.46079920		-0.00005092		 0.00011649		-0.00012300
Si		14.13909376		5.72799731		0.69260069		-0.00003491		-0.00012061		-0.00004928
Si		3.72850299		12.17199242		2.35739913		 0.00003491		 0.00012061		 0.00004928
Si		12.71289666		12.17199242		3.46079920		-0.00005092		-0.00011649		-0.00012300
Si		5.15470381		5.72799731		-0.41079938		 0.00005092		 0.00011649		 0.00012300
O		0.98352085		1.25299848		0.92079938		 0.00037791		-0.00043092		 0.00054885
O		16.88407962		16.64699126		2.12920044		-0.00037791		 0.00043092		-0.00054885
O		7.69731967		16.64699126		2.71219972		-0.00018644		-0.00042766		 0.00038735
O		10.17027894		1.25299848		0.33780010		 0.00018644		 0.00042766		-0.00038735
O		16.88407962		10.20299428		2.12920044		-0.00037791		-0.00043092		-0.00054885
O		0.98352085		7.69699546		0.92079938		 0.00037791		 0.00043092		 0.00054885
O		10.17027894		7.69699546		0.33780010		 0.00018644		-0.00042766		-0.00038735
O		7.69731967		10.20299428		2.71219972		-0.00018644		 0.00042766		 0.00038735
O		0.66731981		3.22199849		3.55580000		 0.00036107		 0.00010657		 0.00050556
O		17.20027880		14.67799125		-0.50580018		-0.00036107		-0.00010657		-0.00050556
O		8.01352071		14.67799125		0.07719910		-0.00030196		 0.00000921		 0.00015802
O		9.85407976		3.22199849		2.97280072		 0.00030196		-0.00000921		-0.00015802
O		17.20027880		12.17199242		-0.50580018		-0.00036107		 0.00010657		-0.00050556
O		0.66731981		5.72799731		3.55580000		 0.00036107		-0.00010657		 0.00050556
O		9.85407976		5.72799731		2.97280072		 0.00030196		 0.00000921		-0.00015802
O		8.01352071		12.17199242		0.07719910		-0.00030196		-0.00000921		 0.00015802
O		0.98352085		13.42499277		0.92079938		-0.00006762		0.00000000		-0.00015106
O		16.88407962		4.47499697		2.12920044		 0.00006762		0.00000000		 0.00015106
O		7.69731967		4.47499697		2.71219972		-0.00027641		0.00000000		 0.00009965
O		10.17027894		13.42499277		0.33780010		 0.00027641		0.00000000		-0.00009965
O		0.98352085		4.47499697		0.92079938		 0.00021298		-0.00000000		 0.00003102
O		16.88407962		13.42499277		2.12920044		-0.00021298		-0.00000000		-0.00003102
O		7.69731967		13.42499277		2.71219972		 0.00007034		0.00000000		 0.00067369
O		10.17027894		4.47499697		0.33780010		-0.00007034		0.00000000		-0.00067369
O		0.66731981		0.00000000		3.55580000		 0.00052750		 0.00074006		-0.00012611
O		17.20027880		0.00000000		-0.50580018		-0.00052750		-0.00074006		 0.00012611
O		8.01352071		0.00000000		0.07719910		 0.00042108		 0.00039012		-0.00025411
O		9.85407976		0.00000000		2.97280072		-0.00042108		-0.00039012		 0.00025411
O		17.20027880		8.94999394		-0.50580018		-0.00052750		 0.00074006		 0.00012611
O		0.66731981		8.94999394		3.55580000		 0.00052750		-0.00074006		-0.00012611
O		9.85407976		8.94999394		2.97280072		-0.00042108		 0.00039012		 0.00025411
O		8.01352071		8.94999394		0.07719910		 0.00042108		-0.00039012		-0.00025411
O		0.89337946		15.57298990		0.15249953		 0.00029489		 0.00027945		-0.00052666
O		16.97421915		2.32699984		2.89750029		-0.00029489		-0.00027945		 0.00052666
O		7.97717945		2.32699984		1.89949995		-0.00026965		 0.00005170		-0.00049570
O		9.89041916		15.57298990		1.15049987		 0.00026965		-0.00005170		 0.00049570
O		16.97421915		6.62299596		2.89750029		-0.00029489		 0.00027945		 0.00052666
O		0.89337946		11.27699378		0.15249953		 0.00029489		-0.00027945		-0.00052666
O		9.89041916		11.27699378		1.15049987		 0.00026965		 0.00005170		 0.00049570
O		7.97717945		6.62299596		1.89949995		-0.00026965		-0.00005170		-0.00049570
O		0.58350423		15.57298990		2.73479935		 0.00005262		-0.00004595		 0.00036433
O		17.28409624		2.32699984		0.31520047		-0.00005262		 0.00004595		-0.00036433
O		8.29970443		2.32699984		-0.78819960		-0.00029211		-0.00001922		-0.00011062
O		9.56789604		15.57298990		3.83819942		 0.00029211		 0.00001922		 0.00011062
O		17.28409624		6.62299596		0.31520047		-0.00005262		-0.00004595		-0.00036433
O		0.58350423		11.27699378		2.73479935		 0.00005262		 0.00004595		 0.00036433
O		9.56789604		11.27699378		3.83819942		 0.00029211		-0.00001922		 0.00011062
O		8.29970443		6.62299596		-0.78819960		-0.00029211		 0.00001922		-0.00011062
O		3.48338020		3.22199849		-0.15829989		-0.00032282		-0.00018386		-0.00013731
O		14.38422028		14.67799125		3.20829971		 0.00032282		 0.00018386		 0.00013731
O		5.38718058		14.67799125		2.21029937		 0.00025880		-0.00023258		-0.00011644
O		12.48041990		3.22199849		0.83970045		-0.00025880		 0.00023258		 0.00011644
O		14.38422028		12.17199242		3.20829971		 0.00032282		-0.00018386		 0.00013731
O		3.48338020		5.72799731		-0.15829989		-0.00032282		 0.00018386		-0.00013731
O		12.48041990		5.72799731		0.83970045		-0.00025880		-0.00023258		 0.00011644
O		5.38718058		12.17199242		2.21029937		 0.00025880		 0.00023258		-0.00011644
O		3.16085521		1.25299848		2.52939966		-0.00067598		-0.00065672		 0.00030340
O		14.70674340		16.64699126		0.52060016		 0.00067598		 0.00065672		-0.00030340
O		5.69705581		16.64699126		-0.37200046		 0.00021833		-0.00023577		 0.00006260
O		12.17054280		1.25299848		3.42200028		-0.00021833		 0.00023577		-0.00006260
O		14.70674340		10.20299428		0.52060016		 0.00067598		-0.00065672		-0.00030340
O		3.16085521		7.69699546		2.52939966		-0.00067598		 0.00065672		 0.00030340
O		12.17054280		7.69699546		3.42200028		-0.00021833		-0.00023577		-0.00006260
O		5.69705581		10.20299428		-0.37200046		 0.00021833		 0.00023577		 0.00006260
O		3.48338020		0.00000000		-0.15829989		-0.00000166		 0.00034096		-0.00031594
O		14.38422028		0.00000000		3.20829971		 0.00000166		-0.00034096		 0.00031594
O		5.38718058		0.00000000		2.21029937		-0.00028844		 0.00005355		 0.00065055
O		12.48041990		0.00000000		0.83970045		 0.00028844		-0.00005355		-0.00065055
O		14.38422028		8.94999394		3.20829971		 0.00000166		 0.00034096		 0.00031594
O		3.48338020		8.94999394		-0.15829989		-0.00000166		-0.00034096		-0.00031594
O		12.48041990		8.94999394		0.83970045		 0.00028844		 0.00005355		-0.00065055
O		5.38718058		8.94999394		2.21029937		-0.00028844		-0.00005355		 0.00065055
O		3.23042048		13.42499277		1.94970023		-0.00058436		0.00000000		 0.00002356
O		14.63717999		4.47499697		1.10029959		 0.00058436		0.00000000		-0.00002356
O		5.13421900		4.47499697		4.31829949		-0.00024428		0.00000000		-0.00022288
O		12.73337961		13.42499277		-1.26829967		 0.00024428		0.00000000		 0.00022288
O		3.16717915		4.47499697		2.47670073		 0.00005790		-0.00000000		-0.00040402
O		14.70041946		13.42499277		0.57329909		-0.00005790		-0.00000000		 0.00040402
O		5.70337976		13.42499277		-0.42469939		-0.00029723		0.00000000		 0.00091036
O		12.16421885		4.47499697		3.47469921		 0.00029723		0.00000000		-0.00091036
O		3.51028026		15.57298990		1.13700046		 0.00024828		-0.00027441		 0.00007398
O		14.35732021		2.32699984		1.91299936		-0.00024828		 0.00027441		-0.00007398
O		5.04407947		2.32699984		3.54999964		 0.00043788		-0.00023669		 0.00030509
O		12.82351914		15.57298990		-0.49999982		-0.00043788		 0.00023669		-0.00030509
O		14.35732021		6.62299596		1.91299936		-0.00024828		-0.00027441		-0.00007398
O		3.51028026		11.27699378		1.13700046		 0.00024828		 0.00027441		 0.00007398
O		12.82351914		11.27699378		-0.49999982		-0.00043788		-0.00023669		-0.00030509
O		5.04407947		6.62299596		3.54999964		 0.00043788		 0.00023669		 0.00030509
O		3.19407922		15.57298990		3.77199922		-0.00031695		 0.00006675		 0.00027265
O		14.67351939		2.32699984		-0.72199940		 0.00031695		-0.00006675		-0.00027265
O		5.36028051		2.32699984		0.91500088		 0.00027221		 0.00000111		 0.00037191
O		12.50731996		15.57298990		2.13500080		-0.00027221		-0.00000111		-0.00037191
O		14.67351939		6.62299596		-0.72199940		 0.00031695		 0.00006675		-0.00027265
O		3.19407922		11.27699378		3.77199922		-0.00031695		-0.00006675		 0.00027265
O		12.50731996		11.27699378		2.13500080		-0.00027221		 0.00000111		-0.00037191
O		5.36028051		6.62299596		0.91500088		 0.00027221		-0.00000111		 0.00037191
H		17.85013975		0.00000000		-1.36289987		 0.00010472		-0.00041292		-0.00019594
H		0.01745886		0.00000000		4.41289969		-0.00010472		 0.00041292		 0.00019594
H		9.39393907		0.00000000		2.24890078		-0.00000824		 0.00005408		-0.00048855
H		8.47366140		0.00000000		0.80110090		 0.00000824		-0.00005408		 0.00048855
H		0.01745886		8.94999394		4.41289969		-0.00010472		-0.00041292		 0.00019594
H		17.85013975		8.94999394		-1.36289987		 0.00010472		 0.00041292		-0.00019594
H		8.47366140		8.94999394		0.80110090		 0.00000824		 0.00005408		 0.00048855
H		9.39393907		8.94999394		2.24890078		-0.00000824		-0.00005408		-0.00048855
