# total energy = -92484.066159 eV

CRYSTAL
PRIMVEC
		18.50000672		0.00000000		-2.96000932
		0.00000000		17.89998989		0.00000000
		-0.84320106		0.00000000		5.26999728
PRIMECORD
   164 1
Mg		2.08458353		3.04299734		1.61779907		 0.00009274		-0.00019551		 0.00016168
Mg		15.57221650		14.85699067		0.69220014		-0.00009274		 0.00019551		-0.00016168
Mg		6.10298386		14.85699067		3.54239997		-0.00039719		 0.00001939		-0.00020486
Mg		11.55381617		3.04299734		-1.23240076		 0.00039719		-0.00001939		 0.00020486
Mg		15.57221650		11.99299416		0.69220014		-0.00009274		-0.00019551		-0.00016168
Mg		2.08458353		5.90699573		1.61779907		 0.00009274		 0.00019551		 0.00016168
Mg		11.55381617		5.90699573		-1.23240076		 0.00039719		 0.00001939		 0.00020486
Mg		6.10298386		11.99299416		3.54239997		-0.00039719		-0.00001939		-0.00020486
Mg		1.67141576		1.43199919		4.20009905		 0.00093126		-0.00011857		 0.00020175
Mg		15.98538427		16.46799070		-1.89009984		-0.00093126		 0.00011857		-0.00020175
Mg		6.53301528		16.46799070		0.85470079		 0.00038206		-0.00001242		 0.00005275
Mg		11.12378475		1.43199919		1.45530029		-0.00038206		 0.00001242		-0.00005275
Mg		15.98538427		10.38199414		-1.89009984		-0.00093126		-0.00011857		-0.00020175
Mg		1.67141576		7.51799575		4.20009905		 0.00093126		 0.00011857		 0.00020175
Mg		11.12378475		7.51799575		1.45530029		-0.00038206		-0.00001242		-0.00005275
Mg		6.53301528		10.38199414		0.85470079		 0.00038206		 0.00001242		 0.00005275
Mg		2.08458353		17.54199009		1.61779907		 0.00002486		 0.00031285		-0.00029091
Mg		15.57221650		0.35799980		0.69220014		-0.00002486		-0.00031285		 0.00029091
Mg		6.10298386		0.35799980		3.54239997		-0.00039404		-0.00031841		 0.00049859
Mg		11.55381617		17.54199009		-1.23240076		 0.00039404		 0.00031841		-0.00049859
Mg		15.57221650		8.59199515		0.69220014		-0.00002486		 0.00031285		 0.00029091
Mg		2.08458353		9.30799474		1.61779907		 0.00002486		-0.00031285		-0.00029091
Mg		11.55381617		9.30799474		-1.23240076		 0.00039404		-0.00031841		-0.00049859
Mg		6.10298386		8.59199515		3.54239997		-0.00039404		 0.00031841		 0.00049859
Mg		1.67141576		4.47499841		4.20009905		-0.00026007		-0.00000000		 0.00046813
Mg		15.98538427		13.42499335		-1.89009984		 0.00026007		-0.00000000		-0.00046813
Mg		6.53301528		13.42499335		0.85470079		-0.00041583		0.00000000		-0.00020549
Mg		11.12378475		4.47499841		1.45530029		 0.00041583		0.00000000		 0.00020549
Si		0.31047208		14.67799171		1.43950081		-0.00007674		 0.00004851		-0.00006785
Si		17.34632795		3.22199818		0.87050027		 0.00007674		-0.00004851		 0.00006785
Si		8.02887188		3.22199818		2.77209985		-0.00040797		 0.00006114		-0.00027966
Si		9.62792628		14.67799171		-0.46210064		 0.00040797		-0.00006114		 0.00027966
Si		17.34632795		5.72799676		0.87050027		 0.00007674		 0.00004851		 0.00006785
Si		0.31047208		12.17199312		1.43950081		-0.00007674		-0.00004851		-0.00006785
Si		9.62792628		12.17199312		-0.46210064		 0.00040797		 0.00006114		 0.00027966
Si		8.02887188		5.72799676		2.77209985		-0.00040797		-0.00006114		-0.00027966
Si		-0.11112845		16.46799070		4.07449945		-0.00028541		-0.00000874		-0.00015370
Si		17.76792848		1.43199919		-1.76450024		 0.00028541		 0.00000874		 0.00015370
Si		8.45047241		1.43199919		0.13709933		 0.00034154		 0.00003466		-0.00003660
Si		9.20632762		16.46799070		2.17289988		-0.00034154		-0.00003466		 0.00003660
Si		17.76792848		7.51799575		-1.76450024		 0.00028541		-0.00000874		 0.00015370
Si		-0.11112845		10.38199414		4.07449945		-0.00028541		 0.00000874		-0.00015370
Si		9.20632762		10.38199414		2.17289988		-0.00034154		 0.00003466		 0.00003660
Si		8.45047241		7.51799575		0.13709933		 0.00034154		-0.00003466		-0.00003660
Si		4.03627194		16.46799070		-0.44039954		-0.00038443		-0.00010527		 0.00014840
Si		13.62052622		1.43199919		2.75040062		 0.00038443		 0.00010527		-0.00014840
Si		4.72467256		1.43199919		2.01699967		 0.00032673		 0.00000028		-0.00037203
Si		12.93212935		16.46799070		0.29299954		-0.00032673		-0.00000028		 0.00037203
Si		13.62052622		7.51799575		2.75040062		 0.00038443		-0.00010527		-0.00014840
Si		4.03627194		10.38199414		-0.44039954		-0.00038443		 0.00010527		 0.00014840
Si		12.93212935		10.38199414		0.29299954		-0.00032673		 0.00000028		 0.00037203
Si		4.72467256		7.51799575		2.01699967		 0.00032673		-0.00000028		-0.00037203
Si		3.61467140		14.67799171		2.19459911		-0.00021758		-0.00026082		 0.00002534
Si		14.04212675		3.22199818		0.11540010		 0.00021758		 0.00026082		-0.00002534
Si		5.14627121		3.22199818		-0.61800084		-0.00011576		-0.00007608		-0.00047391
Si		12.51052694		14.67799171		2.92800005		 0.00011576		 0.00007608		 0.00047391
Si		14.04212675		5.72799676		0.11540010		 0.00021758		-0.00026082		-0.00002534
Si		3.61467140		12.17199312		2.19459911		-0.00021758		 0.00026082		 0.00002534
Si		12.51052694		12.17199312		2.92800005		 0.00011576		-0.00007608		 0.00047391
Si		5.14627121		5.72799676		-0.61800084		-0.00011576		 0.00007608		-0.00047391
O		0.94135907		1.25299836		0.87640002		 0.00041596		-0.00001277		-0.00001718
O		16.71543909		16.64699153		1.43359919		-0.00041596		 0.00001277		 0.00001718
O		7.54975959		16.64699153		2.38660037		-0.00042532		-0.00011685		 0.00045570
O		10.10704044		1.25299836		-0.07659929		 0.00042532		 0.00011685		-0.00045570
O		16.71543909		10.20299330		1.43359919		-0.00041596		-0.00001277		 0.00001718
O		0.94135907		7.69699659		0.87640002		 0.00041596		 0.00001277		-0.00001718
O		10.10704044		7.69699659		-0.07659929		 0.00042532		-0.00011685		-0.00045570
O		7.54975959		10.20299330		2.38660037		-0.00042532		 0.00011685		 0.00045570
O		0.51976041		3.22199818		3.51140054		 0.00019775		-0.00040508		 0.00029686
O		17.13703962		14.67799171		-1.20139946		-0.00019775		 0.00040508		-0.00029686
O		7.97136012		14.67799171		-0.24840015		 0.00025871		-0.00032766		 0.00046402
O		9.68543991		3.22199818		2.55839935		-0.00025871		 0.00032766		-0.00046402
O		17.13703962		12.17199312		-1.20139946		-0.00019775		-0.00040508		-0.00029686
O		0.51976041		5.72799676		3.51140054		 0.00019775		 0.00040508		 0.00029686
O		9.68543991		5.72799676		2.55839935		-0.00025871		-0.00032766		-0.00046402
O		7.97136012		12.17199312		-0.24840015		 0.00025871		 0.00032766		 0.00046402
O		0.94135907		13.42499335		0.87640002		 0.00015156		0.00000000		-0.00060913
O		16.71543909		4.47499841		1.43359919		-0.00015156		0.00000000		 0.00060913
O		7.54975959		4.47499841		2.38660037		-0.00022035		0.00000000		 0.00003413
O		10.10704044		13.42499335		-0.07659929		 0.00022035		0.00000000		-0.00003413
O		0.94135907		4.47499841		0.87640002		-0.00035649		0.00000000		-0.00038108
O		16.71543909		13.42499335		1.43359919		 0.00035649		0.00000000		 0.00038108
O		7.54975959		13.42499335		2.38660037		 0.00029000		-0.00000000		-0.00059011
O		10.10704044		4.47499841		-0.07659929		-0.00029000		-0.00000000		 0.00059011
O		0.51976041		0.00000000		3.51140054		 0.00038507		 0.00004070		 0.00017840
O		17.13703962		0.00000000		-1.20139946		-0.00038507		-0.00004070		-0.00017840
O		7.97136012		0.00000000		-0.24840015		 0.00018355		 0.00029260		-0.00040255
O		9.68543991		0.00000000		2.55839935		-0.00018355		-0.00029260		 0.00040255
O		17.13703962		8.94999494		-1.20139946		-0.00038507		 0.00004070		-0.00017840
O		0.51976041		8.94999494		3.51140054		 0.00038507		-0.00004070		 0.00017840
O		9.68543991		8.94999494		2.55839935		-0.00018355		 0.00029260		 0.00040255
O		7.97136012		8.94999494		-0.24840015		 0.00018355		-0.00029260		-0.00040255
O		0.88283935		15.57299027		0.11549940		 0.00027323		 0.00056251		-0.00000156
O		16.77396068		2.32699962		2.19449981		-0.00027323		-0.00056251		 0.00000156
O		7.86123963		2.32699962		1.56649993		 0.00007777		-0.00009245		-0.00017709
O		9.79556040		15.57299027		0.74349927		-0.00007777		 0.00009245		 0.00017709
O		16.77396068		6.62299532		2.19449981		-0.00027323		 0.00056251		 0.00000156
O		0.88283935		11.27699457		0.11549940		 0.00027323		-0.00056251		-0.00000156
O		9.79556040		11.27699457		0.74349927		-0.00007777		-0.00009245		 0.00017709
O		7.86123963		6.62299532		1.56649993		 0.00007777		 0.00009245		-0.00017709
O		0.46967157		15.57299027		2.69779938		 0.00039432		 0.00016794		 0.00000310
O		17.18712846		2.32699962		-0.38780017		-0.00039432		-0.00016794		-0.00000310
O		8.29127105		2.32699962		-1.12119924		 0.00014250		 0.00023681		 0.00013990
O		9.36552711		15.57299027		3.43120032		-0.00014250		-0.00023681		-0.00013990
O		17.18712846		6.62299532		-0.38780017		-0.00039432		 0.00016794		-0.00000310
O		0.46967157		11.27699457		2.69779938		 0.00039432		-0.00016794		 0.00000310
O		9.36552711		11.27699457		3.43120032		-0.00014250		 0.00023681		-0.00013990
O		8.29127105		6.62299532		-1.12119924		 0.00014250		-0.00023681		 0.00013990
O		3.47283954		3.22199818		-0.29889928		-0.00040072		-0.00001855		 0.00036040
O		14.18396049		14.67799171		2.60890036		 0.00040072		 0.00001855		-0.00036040
O		5.27123944		14.67799171		1.98090049		-0.00028690		-0.00011416		 0.00024890
O		12.38556060		3.22199818		0.32910059		 0.00028690		 0.00011416		-0.00024890
O		14.18396049		12.17199312		2.60890036		 0.00040072		-0.00001855		-0.00036040
O		3.47283954		5.72799676		-0.29889928		-0.00040072		 0.00001855		 0.00036040
O		12.38556060		5.72799676		0.32910059		 0.00028690		-0.00011416		-0.00024890
O		5.27123944		12.17199312		1.98090049		-0.00028690		 0.00011416		 0.00024890
O		3.04280812		1.25299836		2.38879989		 0.00004572		-0.00007938		-0.00018641
O		14.61399191		16.64699153		-0.07880069		-0.00004572		 0.00007938		 0.00018641
O		5.68440721		16.64699153		-0.60139949		-0.00030154		 0.00022638		-0.00051910
O		11.97239095		1.25299836		2.91140057		 0.00030154		-0.00022638		 0.00051910
O		14.61399191		10.20299330		-0.07880069		-0.00004572		-0.00007938		 0.00018641
O		3.04280812		7.69699659		2.38879989		 0.00004572		 0.00007938		-0.00018641
O		11.97239095		7.69699659		2.91140057		 0.00030154		 0.00022638		 0.00051910
O		5.68440721		10.20299330		-0.60139949		-0.00030154		-0.00022638		-0.00051910
O		3.47283954		0.00000000		-0.29889928		 0.00025581		 0.00019610		 0.00015829
O		14.18396049		0.00000000		2.60890036		-0.00025581		-0.00019610		-0.00015829
O		5.27123944		0.00000000		1.98090049		 0.00028998		-0.00010428		 0.00050221
O		12.38556060		0.00000000		0.32910059		-0.00028998		 0.00010428		-0.00050221
O		14.18396049		8.94999494		2.60890036		-0.00025581		 0.00019610		-0.00015829
O		3.47283954		8.94999494		-0.29889928		 0.00025581		-0.00019610		 0.00015829
O		12.38556060		8.94999494		0.32910059		-0.00028998		-0.00010428		-0.00050221
O		5.27123944		8.94999494		1.98090049		 0.00028998		 0.00010428		 0.00050221
O		3.13555911		13.42499335		1.80909963		-0.00017805		0.00000000		 0.00041039
O		14.52123905		4.47499841		0.50089958		 0.00017805		0.00000000		-0.00041039
O		4.93396088		4.47499841		4.08889940		-0.00004716		0.00000000		 0.00010784
O		12.72283915		13.42499335		-1.77890020		 0.00004716		0.00000000		-0.00010784
O		3.05124088		4.47499841		2.33609936		-0.00031562		0.00000000		-0.00087104
O		14.60555915		13.42499335		-0.02610015		 0.00031562		0.00000000		 0.00087104
O		5.69283997		13.42499335		-0.65410003		-0.00056577		-0.00000000		 0.00056055
O		11.96396006		4.47499841		2.96409923		 0.00056577		-0.00000000		-0.00056055
O		3.44703915		15.57299027		0.98899920		-0.00019457		-0.00011313		 0.00004005
O		14.20975901		2.32699962		1.32100001		 0.00019457		 0.00011313		-0.00004005
O		4.87543929		2.32699962		3.32800065		 0.00086022		 0.00002550		-0.00027678
O		12.78136074		15.57299027		-1.01799957		-0.00086022		-0.00002550		 0.00027678
O		14.20975901		6.62299532		1.32100001		 0.00019457		-0.00011313		-0.00004005
O		3.44703915		11.27699457		0.98899920		-0.00019457		 0.00011313		 0.00004005
O		12.78136074		11.27699457		-1.01799957		-0.00086022		 0.00002550		 0.00027678
O		4.87543929		6.62299532		3.32800065		 0.00086022		-0.00002550		-0.00027678
O		3.02544049		15.57299027		3.62399971		 0.00048258		-0.00031762		 0.00054539
O		14.63135954		2.32699962		-1.31400050		-0.00048258		 0.00031762		-0.00054539
O		5.29703982		2.32699962		0.69300014		-0.00000230		 0.00057669		-0.00004171
O		12.35976021		15.57299027		1.61699907		 0.00000230		-0.00057669		 0.00004171
O		14.63135954		6.62299532		-1.31400050		-0.00048258		-0.00031762		-0.00054539
O		3.02544049		11.27699457		3.62399971		 0.00048258		 0.00031762		 0.00054539
O		12.35976021		11.27699457		1.61699907		 0.00000230		 0.00057669		 0.00004171
O		5.29703982		6.62299532		0.69300014		-0.00000230		-0.00057669		-0.00004171
H		17.81852130		0.00000000		-2.08069970		-0.00050708		 0.00002801		 0.00052447
H		-0.16172127		0.00000000		4.39070078		 0.00050708		-0.00002801		-0.00052447
H		9.25691856		0.00000000		1.85670042		 0.00018688		 0.00028064		 0.00026247
H		8.39988147		0.00000000		0.45330067		-0.00018688		-0.00028064		-0.00026247
H		-0.16172127		8.94999494		4.39070078		 0.00050708		 0.00002801		-0.00052447
H		17.81852130		8.94999494		-2.08069970		-0.00050708		-0.00002801		 0.00052447
H		8.39988147		8.94999494		0.45330067		-0.00018688		 0.00028064		-0.00026247
H		9.25691856		8.94999494		1.85670042		 0.00018688		-0.00028064		 0.00026247
