# total energy = -92496.505964 eV

CRYSTAL
PRIMVEC
		18.50000034		0.00000000		0.73999927
		0.00000000		17.89999143		0.00000000
		0.21079093		0.00000000		5.26999532
PRIMECORD
   164 1
Mg		2.48510374		3.04299706		2.09879998		-0.00013713		-0.00006138		 0.00009950
Mg		16.22569493		14.85699066		3.91120017		 0.00013713		 0.00006138		-0.00009950
Mg		7.03050410		14.85699066		4.91140080		 0.00029637		 0.00008656		 0.00007949
Mg		11.68029642		3.04299706		1.09859935		-0.00029637		-0.00008656		-0.00007949
Mg		16.22569493		11.99299463		3.91120017		 0.00013713		-0.00006138		-0.00009950
Mg		2.48510374		5.90699495		2.09879998		-0.00013713		 0.00006138		 0.00009950
Mg		11.68029642		5.90699495		1.09859935		-0.00029637		 0.00008656		-0.00007949
Mg		7.03050410		11.99299463		4.91140080		 0.00029637		-0.00008656		 0.00007949
Mg		2.58839593		1.43199894		4.68109899		-0.00042711		-0.00006312		 0.00017279
Mg		16.12240275		16.46799063		1.32889932		 0.00042711		 0.00006312		-0.00017279
Mg		6.92299610		16.46799063		2.22370078		 0.00021763		 0.00013292		 0.00027258
Mg		11.78780442		1.43199894		3.78629937		-0.00021763		-0.00013292		-0.00027258
Mg		16.12240275		10.38199466		1.32889932		 0.00042711		-0.00006312		-0.00017279
Mg		2.58839593		7.51799492		4.68109899		-0.00042711		 0.00006312		 0.00017279
Mg		11.78780442		7.51799492		3.78629937		-0.00021763		 0.00013292		-0.00027258
Mg		6.92299610		10.38199466		2.22370078		 0.00021763		-0.00013292		 0.00027258
Mg		2.48510374		17.54199123		2.09879998		-0.00025145		-0.00034061		 0.00016837
Mg		16.22569493		0.35800020		3.91120017		 0.00025145		 0.00034061		-0.00016837
Mg		7.03050410		0.35800020		4.91140080		 0.00004625		-0.00028775		-0.00002566
Mg		11.68029642		17.54199123		1.09859935		-0.00004625		 0.00028775		 0.00002566
Mg		16.22569493		8.59199551		3.91120017		 0.00025145		-0.00034061		-0.00016837
Mg		2.48510374		9.30799406		2.09879998		-0.00025145		 0.00034061		 0.00016837
Mg		11.68029642		9.30799406		1.09859935		-0.00004625		-0.00028775		 0.00002566
Mg		7.03050410		8.59199551		4.91140080		 0.00004625		 0.00028775		-0.00002566
Mg		2.58839593		4.47499786		4.68109899		 0.00005234		-0.00000000		-0.00059858
Mg		16.12240275		13.42499357		1.32889932		-0.00005234		-0.00000000		 0.00059858
Mg		6.92299610		13.42499357		2.22370078		 0.00008550		0.00000000		-0.00002584
Mg		11.78780442		4.47499786		3.78629937		-0.00008550		0.00000000		 0.00002584
Si		0.61613160		14.67799149		1.55049918		 0.00002667		 0.00022560		-0.00015844
Si		18.09466893		3.22199809		4.45949912		-0.00002667		-0.00022560		 0.00015844
Si		8.86153203		3.22199809		4.51109985		-0.00013961		-0.00009129		-0.00023689
Si		9.84926665		14.67799149		1.49890030		 0.00013961		 0.00009129		 0.00023689
Si		18.09466893		5.72799763		4.45949912		-0.00002667		 0.00022560		 0.00015844
Si		0.61613160		12.17199195		1.55049918		 0.00002667		-0.00022560		-0.00015844
Si		9.84926665		12.17199195		1.49890030		 0.00013961		-0.00009129		 0.00023689
Si		8.86153203		5.72799763		4.51109985		-0.00013961		 0.00009129		-0.00023689
Si		0.72153262		16.46799063		4.18550054		-0.00002977		 0.00038624		 0.00008435
Si		17.98926791		1.43199894		1.82449961		 0.00002977		-0.00038624		-0.00008435
Si		8.75613101		1.43199894		1.87610034		-0.00009647		-0.00031020		-0.00021088
Si		9.95466766		16.46799063		4.13389981		 0.00009647		 0.00031020		 0.00021088
Si		17.98926791		7.51799492		1.82449961		 0.00002977		 0.00038624		-0.00008435
Si		0.72153262		10.38199466		4.18550054		-0.00002977		-0.00038624		 0.00008435
Si		9.95466766		10.38199466		4.13389981		 0.00009647		-0.00031020		 0.00021088
Si		8.75613101		7.51799492		1.87610034		-0.00009647		 0.00031020		-0.00021088
Si		4.07843134		16.46799063		0.37360076		 0.00014263		-0.00031487		 0.00005556
Si		14.63236733		1.43199894		5.63639939		-0.00014263		 0.00031487		-0.00005556
Si		5.29383127		1.43199894		3.05300060		 0.00002622		-0.00021660		 0.00006913
Si		13.41696926		16.46799063		2.95699955		-0.00002622		 0.00021660		-0.00006913
Si		14.63236733		7.51799492		5.63639939		-0.00014263		-0.00031487		-0.00005556
Si		4.07843134		10.38199466		0.37360076		 0.00014263		 0.00031487		 0.00005556
Si		13.41696926		10.38199466		2.95699955		-0.00002622		-0.00021660		-0.00006913
Si		5.29383127		7.51799492		3.05300060		 0.00002622		 0.00021660		 0.00006913
Si		4.18383236		14.67799149		3.00860028		-0.00006594		-0.00010429		-0.00005441
Si		14.52696632		3.22199809		3.00139987		 0.00006594		 0.00010429		 0.00005441
Si		5.18843210		3.22199809		0.41799924		-0.00008972		-0.00014097		-0.00013407
Si		13.52236842		14.67799149		5.59199906		 0.00008972		 0.00014097		 0.00013407
Si		14.52696632		5.72799763		3.00139987		 0.00006594		-0.00010429		 0.00005441
Si		4.18383236		12.17199195		3.00860028		-0.00006594		 0.00010429		-0.00005441
Si		13.52236842		12.17199195		5.59199906		 0.00008972		-0.00014097		 0.00013407
Si		5.18843210		5.72799763		0.41799924		-0.00008972		 0.00014097		-0.00013407
O		1.15216080		1.25299977		1.09839939		 0.00007192		-0.00023046		 0.00003453
O		17.55863973		16.64698980		4.91160076		-0.00007192		 0.00023046		-0.00003453
O		8.28756046		16.64698980		4.01459974		 0.00002098		-0.00010026		-0.00005009
O		10.42324006		1.25299977		1.99540041		-0.00002098		 0.00010026		 0.00005009
O		17.55863973		10.20299363		4.91160076		-0.00007192		-0.00023046		-0.00003453
O		1.15216080		7.69699594		1.09839939		 0.00007192		 0.00023046		 0.00003453
O		10.42324006		7.69699594		1.99540041		-0.00002098		-0.00010026		 0.00005009
O		8.28756046		10.20299363		4.01459974		 0.00002098		 0.00010026		-0.00005009
O		1.25755996		3.22199809		3.73340076		 0.00002666		 0.00016985		 0.00003847
O		17.45323871		14.67799149		2.27659940		-0.00002666		-0.00016985		-0.00003847
O		8.18215945		14.67799149		1.37960023		-0.00024490		-0.00027575		 0.00025779
O		10.52863923		3.22199809		4.63039993		 0.00024490		 0.00027575		-0.00025779
O		17.45323871		12.17199195		2.27659940		-0.00002666		 0.00016985		-0.00003847
O		1.25755996		5.72799763		3.73340076		 0.00002666		-0.00016985		 0.00003847
O		10.52863923		5.72799763		4.63039993		 0.00024490		-0.00027575		-0.00025779
O		8.18215945		12.17199195		1.37960023		-0.00024490		 0.00027575		 0.00025779
O		1.15216080		13.42499357		1.09839939		-0.00015381		0.00000000		-0.00040762
O		17.55863973		4.47499786		4.91160076		 0.00015381		0.00000000		 0.00040762
O		8.28756046		4.47499786		4.01459974		 0.00011063		-0.00000000		-0.00002326
O		10.42324006		13.42499357		1.99540041		-0.00011063		-0.00000000		 0.00002326
O		1.15216080		4.47499786		1.09839939		-0.00026653		-0.00000000		-0.00069423
O		17.55863973		13.42499357		4.91160076		 0.00026653		-0.00000000		 0.00069423
O		8.28756046		13.42499357		4.01459974		-0.00018550		0.00000000		 0.00017549
O		10.42324006		4.47499786		1.99540041		 0.00018550		0.00000000		-0.00017549
O		1.25755996		0.00000000		3.73340076		-0.00001759		 0.00053113		 0.00004152
O		17.45323871		0.00000000		2.27659940		 0.00001759		-0.00053113		-0.00004152
O		8.18215945		0.00000000		1.37960023		 0.00053408		-0.00054252		 0.00010685
O		10.52863923		0.00000000		4.63039993		-0.00053408		 0.00054252		-0.00010685
O		17.45323871		8.94999571		2.27659940		 0.00001759		 0.00053113		-0.00004152
O		1.25755996		8.94999571		3.73340076		-0.00001759		-0.00053113		 0.00004152
O		10.52863923		8.94999571		4.63039993		-0.00053408		-0.00054252		-0.00010685
O		8.18215945		8.94999571		1.37960023		 0.00053408		 0.00054252		 0.00010685
O		0.93553956		15.57299106		0.30050066		-0.00007482		-0.00024836		-0.00030587
O		17.77525911		2.32699852		5.70949950		 0.00007482		 0.00024836		 0.00030587
O		8.44094072		2.32699852		3.23149988		-0.00020052		-0.00017245		-0.00022989
O		10.26985981		15.57299106		2.77850027		 0.00020052		 0.00017245		 0.00022989
O		17.77525911		6.62299535		5.70949950		 0.00007482		-0.00024836		 0.00030587
O		0.93553956		11.27699423		0.30050066		-0.00007482		 0.00024836		-0.00030587
O		10.26985981		11.27699423		2.77850027		 0.00020052		-0.00017245		 0.00022989
O		8.44094072		6.62299535		3.23149988		-0.00020052		 0.00017245		-0.00022989
O		1.03883175		15.57299106		2.88279966		 0.00007771		-0.00016587		 0.00028822
O		17.67196693		2.32699852		3.12720049		-0.00007771		 0.00016587		-0.00028822
O		8.33343272		2.32699852		0.54379986		-0.00011285		-0.00001035		 0.00002276
O		10.37736781		15.57299106		5.46620030		 0.00011285		 0.00001035		-0.00002276
O		17.67196693		6.62299535		3.12720049		-0.00007771		-0.00016587		-0.00028822
O		1.03883175		11.27699423		2.88279966		 0.00007771		 0.00016587		 0.00028822
O		10.37736781		11.27699423		5.46620030		 0.00011285		-0.00001035		-0.00002276
O		8.33343272		6.62299535		0.54379986		-0.00011285		 0.00001035		 0.00002276
O		3.52554072		3.22199809		0.40410018		-0.00006751		-0.00002920		-0.00015352
O		15.18525980		14.67799149		5.60589997		 0.00006751		 0.00002920		 0.00015352
O		5.85093956		14.67799149		3.12790035		 0.00004920		 0.00044612		-0.00023557
O		12.85985912		3.22199809		2.88209980		-0.00004920		-0.00044612		 0.00023557
O		15.18525980		12.17199195		5.60589997		 0.00006751		-0.00002920		 0.00015352
O		3.52554072		5.72799763		0.40410018		-0.00006751		 0.00002920		-0.00015352
O		12.85985912		5.72799763		2.88209980		-0.00004920		 0.00044612		 0.00023557
O		5.85093956		12.17199195		3.12790035		 0.00004920		-0.00044612		-0.00023557
O		3.63304872		1.25299977		3.09180021		-0.00006055		-0.00014941		 0.00033254
O		15.07775180		16.64698980		2.91819995		 0.00006055		 0.00014941		-0.00033254
O		5.74764738		16.64698980		0.54559949		 0.00012810		 0.00024933		 0.00003475
O		12.96315130		1.25299977		5.46440066		-0.00012810		-0.00024933		-0.00003475
O		15.07775180		10.20299363		2.91819995		 0.00006055		-0.00014941		-0.00033254
O		3.63304872		7.69699594		3.09180021		-0.00006055		 0.00014941		 0.00033254
O		12.96315130		7.69699594		5.46440066		-0.00012810		 0.00024933		-0.00003475
O		5.74764738		10.20299363		0.54559949		 0.00012810		-0.00024933		 0.00003475
O		3.52554072		0.00000000		0.40410018		 0.00025593		 0.00005677		 0.00037455
O		15.18525980		0.00000000		5.60589997		-0.00025593		-0.00005677		-0.00037455
O		5.85093956		0.00000000		3.12790035		 0.00010890		-0.00011508		-0.00026310
O		12.85985912		0.00000000		2.88209980		-0.00010890		 0.00011508		 0.00026310
O		15.18525980		8.94999571		5.60589997		-0.00025593		 0.00005677		-0.00037455
O		3.52554072		8.94999571		0.40410018		 0.00025593		-0.00005677		 0.00037455
O		12.85985912		8.94999571		2.88209980		-0.00010890		-0.00011508		 0.00026310
O		5.85093956		8.94999571		3.12790035		 0.00010890		 0.00011508		-0.00026310
O		3.60986080		13.42499357		2.51210016		-0.00061821		-0.00000000		 0.00020372
O		15.10093973		4.47499786		3.49789999		 0.00061821		-0.00000000		-0.00020372
O		5.93525963		4.47499786		5.23590033		 0.00032201		-0.00000000		-0.00007522
O		12.77553904		13.42499357		0.77409982		-0.00032201		-0.00000000		 0.00007522
O		3.63093989		4.47499786		3.03909970		-0.00020730		0.00000000		 0.00053801
O		15.07985879		13.42499357		2.97090045		 0.00020730		0.00000000		-0.00053801
O		5.74554039		13.42499357		0.49290084		-0.00002756		-0.00000000		 0.00078530
O		12.96526013		4.47499786		5.51709931		 0.00002756		-0.00000000		-0.00078530
O		3.76323920		15.57299106		1.72900030		-0.00019502		-0.00030898		-0.00007716
O		14.94755948		2.32699852		4.28099985		 0.00019502		 0.00030898		 0.00007716
O		5.71864025		2.32699852		4.43799974		 0.00086688		 0.00008095		-0.00021912
O		12.99216028		15.57299106		1.57200041		-0.00086688		-0.00008095		 0.00021912
O		14.94755948		6.62299535		4.28099985		 0.00019502		-0.00030898		 0.00007716
O		3.76323920		11.27699423		1.72900030		-0.00019502		 0.00030898		-0.00007716
O		12.99216028		11.27699423		1.57200041		-0.00086688		 0.00008095		 0.00021912
O		5.71864025		6.62299535		4.43799974		 0.00086688		-0.00008095		-0.00021912
O		3.86864022		15.57299106		4.36399982		-0.00027190		 0.00014146		-0.00003986
O		14.84216031		2.32699852		1.64600033		 0.00027190		-0.00014146		 0.00003986
O		5.61323923		2.32699852		1.80300023		 0.00014186		-0.00034183		-0.00003078
O		13.09755944		15.57299106		4.20699992		-0.00014186		 0.00034183		 0.00003078
O		14.84216031		6.62299535		1.64600033		 0.00027190		 0.00014146		 0.00003986
O		3.86864022		11.27699423		4.36399982		-0.00027190		-0.00014146		-0.00003986
O		13.09755944		11.27699423		4.20699992		-0.00014186		-0.00034183		 0.00003078
O		5.61323923		6.62299535		1.80300023		 0.00014186		 0.00034183		-0.00003078
H		17.97662045		0.00000000		1.50830026		-0.00082128		 0.00067665		 0.00009931
H		0.73417822		0.00000000		4.50169989		 0.00082128		-0.00067665		-0.00009931
H		9.94201836		0.00000000		3.81770046		 0.00041264		 0.00009230		 0.00004449
H		8.76878032		0.00000000		2.19229969		-0.00041264		-0.00009230		-0.00004449
H		0.73417822		8.94999571		4.50169989		 0.00082128		 0.00067665		-0.00009931
H		17.97662045		8.94999571		1.50830026		-0.00082128		-0.00067665		 0.00009931
H		8.76878032		8.94999571		2.19229969		-0.00041264		 0.00009230		-0.00004449
H		9.94201836		8.94999571		3.81770046		 0.00041264		-0.00009230		 0.00004449
