# total energy = -44000.8265233 eV

CRYSTAL
PRIMVEC
		9.81800346		-1.57088493		0.00000000
		-2.88752057		18.04699613		0.00000000
		-1.33411522		0.21346361		5.10349930
PRIMECORD
   82 1
Si		2.11498197		1.13874268		1.51267933		-0.00025323		 0.00022678		-0.00031173
Si		3.48137674		15.55083810		3.59082494		 0.00025323		-0.00022678		 0.00031173
Si		5.88379434		0.53573310		3.59082494		 0.00000996		-0.00027173		-0.00013492
Si		-0.28743363		16.15384768		1.51267933		-0.00000996		 0.00027173		 0.00013492
Si		5.58022143		9.37680325		1.51267933		-0.00019297		 0.00020188		-0.00029856
Si		0.01613729		7.31277653		3.59082494		 0.00019297		-0.00020188		 0.00029856
Si		-0.46896569		10.34467264		3.59082494		 0.00005975		-0.00024583		-0.00011383
Si		6.06532540		6.34490715		1.51267933		-0.00005975		 0.00024583		 0.00011383
Si		1.26750292		2.80599297		4.10423827		 0.00005450		-0.00018243		-0.00007912
Si		4.32885679		13.88358681		0.99926600		-0.00005450		 0.00018243		 0.00007912
Si		6.22826826		2.01227008		0.99926600		 0.00010986		 0.00007934		 0.00000803
Si		-0.63190756		14.67730971		4.10423827		-0.00010986		-0.00007934		-0.00000803
Si		4.73274238		11.04405354		4.10423827		 0.00006355		-0.00012251		-0.00008795
Si		0.86361733		5.64552723		0.99926600		-0.00006355		 0.00012251		 0.00008795
Si		-0.12449177		11.82121061		0.99926600		 0.00008215		 0.00007829		 0.00001669
Si		5.72085148		4.86836917		4.10423827		-0.00008215		-0.00007829		-0.00001669
O		2.24629654		1.72441487		3.00290169		 0.00009047		-0.00009138		-0.00026485
O		3.35006217		14.96516591		2.10060159		-0.00009047		 0.00009138		 0.00026485
O		5.55323945		1.19530372		2.10060159		 0.00033953		 0.00025325		 0.00023428
O		0.04311927		15.49427606		3.00290169		-0.00033953		-0.00025325		-0.00023428
O		5.71153699		9.96247445		3.00290169		 0.00006040		-0.00007861		-0.00024423
O		-0.11517828		6.72710534		2.10060159		-0.00006040		 0.00007861		 0.00024423
O		-0.79951959		11.00424426		2.10060159		 0.00031695		 0.00025283		 0.00019999
O		6.39588030		5.68533553		3.00290169		-0.00031695		-0.00025283		-0.00019999
O		0.55870611		1.42291704		1.10797147		-0.00047028		 0.00071095		-0.00004988
O		5.03765260		15.26666275		3.99553281		 0.00047028		-0.00071095		 0.00004988
O		7.42851956		0.32374700		3.99553281		 0.00021281		-0.00015501		-0.00035475
O		-1.83215985		16.36583278		1.10797147		-0.00021281		 0.00015501		 0.00035475
O		4.02394557		9.66097761		1.10797147		-0.00045972		 0.00066394		-0.00003562
O		1.57241315		7.02860317		3.99553281		 0.00045972		-0.00066394		 0.00003562
O		1.07575953		10.13268754		3.99553281		 0.00019000		-0.00018176		-0.00037113
O		4.52060018		6.55689324		1.10797147		-0.00019000		 0.00018176		 0.00037113
O		1.81303473		4.07099426		4.04860887		-0.00036602		 0.00031812		-0.00005956
O		3.78332499		12.61858552		1.05489441		 0.00036602		-0.00031812		 0.00005956
O		5.23863492		3.52289819		1.05489441		-0.00014443		-0.00011631		 0.00034314
O		0.35772380		13.16668159		4.04860887		 0.00014443		 0.00011631		-0.00034314
O		5.27827418		12.30905484		4.04860887		-0.00034641		 0.00029126		-0.00007517
O		0.31808454		4.38052594		1.05489441		 0.00034641		-0.00029126		 0.00007517
O		-1.11412511		13.33183873		1.05489441		-0.00016983		-0.00012438		 0.00033159
O		6.71048383		3.35774205		4.04860887		 0.00016983		 0.00012438		-0.00033159
O		2.91896989		-0.46703478		1.49073342		 0.00044387		 0.00027118		-0.00000383
O		5.56490940		-0.89038554		3.61276986		-0.00044387		-0.00027118		 0.00000383
O		6.38420935		7.77102479		1.49073342		 0.00040314		 0.00030700		-0.00001591
O		-0.78784963		8.91855499		3.61276986		-0.00040314		-0.00030700		 0.00001591
O		-0.29681275		3.05804189		3.69493680		 0.00024461		-0.00002407		-0.00061598
O		5.89317246		13.63153789		1.40856648		-0.00024461		 0.00002407		 0.00061598
O		7.79200625		1.76383141		1.40856648		-0.00006994		 0.00009156		 0.00029685
O		-2.19564654		14.92574837		3.69493680		 0.00006994		-0.00009156		-0.00029685
O		3.16842571		11.29610247		3.69493680		 0.00027097		-0.00004551		-0.00065363
O		2.42793300		5.39347831		1.40856648		-0.00027097		 0.00004551		 0.00065363
O		1.43924622		11.57277194		1.40856648		-0.00006287		 0.00009649		 0.00024556
O		4.15711250		5.11680884		3.69493680		 0.00006287		-0.00009649		-0.00024556
O		0.12188972		-0.01950196		3.65002582		 0.00011462		-0.00003501		-0.00035986
O		8.36198958		-1.33791837		1.45347845		-0.00011462		 0.00003501		 0.00035986
O		3.58713017		8.21855762		3.65002582		 0.00016075		-0.00001068		-0.00038657
O		2.00922955		8.47102216		1.45347845		-0.00016075		 0.00001068		 0.00038657
O		2.88179746		1.90057678		0.50626838		-0.00011755		 0.00026091		-0.00015959
O		2.71456126		14.78900300		4.59723589		 0.00011755		-0.00026091		 0.00015959
O		4.82649276		1.58942640		4.59723589		 0.00003289		-0.00024495		 0.00014466
O		0.76986595		15.10015338		0.50626838		-0.00003289		 0.00024495		-0.00014466
O		6.34703890		10.13863735		0.50626838		-0.00010386		 0.00023063		-0.00016610
O		-0.75067919		6.55094144		4.59723589		 0.00010386		-0.00023063		 0.00016610
O		-1.52626727		11.39836694		4.59723589		 0.00003643		-0.00026343		 0.00016455
O		7.12262599		5.29121384		0.50626838		-0.00003643		 0.00026343		-0.00016455
Ca		-1.46863637		5.11657717		2.55175164		 0.00012483		 0.00000290		-0.00003890
Ca		-2.75300539		13.14388257		2.55175164		-0.00012483		-0.00000290		 0.00003890
Ca		1.99660408		13.35463675		2.55175164		 0.00013186		 0.00002330		-0.00002127
Ca		3.59975464		3.33494304		2.55175164		-0.00013186		-0.00002330		 0.00002127
Mg		0.00000000		0.00000000		0.00000000		0.00000000		0.00000000		0.00000000
Mg		3.46523946		8.23805958		0.00000000		0.00000000		0.00000000		0.00000000
Mg		-0.50993631		3.18710042		0.00000000		-0.00027830		 0.00056346		 0.00044385
Mg		-2.37758427		14.85990068		0.00000000		 0.00027830		-0.00056346		-0.00044385
Mg		2.95530414		11.42516000		0.00000000		-0.00031985		 0.00056572		 0.00040594
Mg		3.97517576		5.05096015		0.00000000		 0.00031985		-0.00056572		-0.00040594
Mg		-0.92058405		1.69125637		2.55175164		-0.00023291		-0.00033830		-0.00065506
Mg		-3.30105573		16.56920238		2.55175164		 0.00023291		 0.00033830		 0.00065506
Mg		2.54465541		9.92931694		2.55175164		-0.00026374		-0.00040693		-0.00057160
Mg		3.05170430		6.76026284		2.55175164		 0.00026374		 0.00040693		 0.00057160
H		0.92650901		-0.14824232		3.92969804		 0.00000463		 0.00011561		 0.00067810
H		7.55737029		-1.20917901		1.17380623		-0.00000463		-0.00011561		-0.00067810
H		4.39174846		8.08981925		3.92969804		-0.00003515		 0.00009316		 0.00066246
H		1.20461026		8.59976053		1.17380623		 0.00003515		-0.00009316		-0.00066246
