# total energy = -44012.203466 eV

CRYSTAL
PRIMVEC
		9.81800030		0.39271962		0.00000000
		0.72187581		18.04700325		0.00000000
		-1.33412459		-0.05336420		5.10350778
PRIMECORD
   82 1
Si		2.41817243		1.61024870		1.51267898		 0.00019062		-0.00034237		 0.00013732
Si		6.78758694		16.77610703		3.59082488		-0.00019062		 0.00034237		-0.00013732
Si		6.18698277		1.76100182		3.59082488		 0.00028872		 0.00011771		 0.00048222
Si		3.01877561		16.62535390		1.51267898		-0.00028872		-0.00011771		-0.00048222
Si		7.68811146		10.83011013		1.51267898		 0.00020784		-0.00033772		 0.00014001
Si		1.51764791		7.55624559		3.59082488		-0.00020784		 0.00033772		-0.00014001
Si		1.63892446		10.58814167		3.59082488		 0.00026416		 0.00011450		 0.00047265
Si		7.56683589		7.79821405		1.51267898		-0.00026416		-0.00011450		-0.00047265
Si		1.88507087		3.15830368		4.10423837		-0.00003272		 0.00001255		 0.00006909
Si		7.32068850		15.22805204		0.99926646		 0.00003272		-0.00001255		-0.00006909
Si		6.84583557		3.35673478		0.99926646		 0.00003552		 0.00034270		 0.00039162
Si		2.35992380		15.02962094		4.10423837		-0.00003552		-0.00034270		-0.00039162
Si		7.15501089		12.37816512		4.10423837		-0.00000340		 0.00001163		 0.00006625
Si		2.05074946		6.00819060		0.99926646		 0.00000340		-0.00001163		-0.00006625
Si		2.29777627		12.18387561		0.99926646		-0.00000714		 0.00038292		 0.00039496
Si		6.90798310		6.20248011		4.10423837		 0.00000714		-0.00038292		-0.00039496
O		2.67401106		2.24210791		3.00290195		-0.00010409		 0.00023313		 0.00022252
O		6.53174831		16.14424781		2.10060190		 0.00010409		-0.00023313		-0.00022252
O		5.98095433		2.37438549		2.10060190		-0.00015126		-0.00030788		 0.00017137
O		3.22480603		16.01197023		3.00290195		 0.00015126		 0.00030788		-0.00017137
O		7.94395108		11.46196935		3.00290195		-0.00009234		 0.00021107		 0.00020388
O		1.26180928		6.92438736		2.10060190		 0.00009234		-0.00021107		-0.00020388
O		1.43289405		11.20152632		2.10060190		-0.00013906		-0.00032711		 0.00017737
O		7.77286631		7.18483038		3.00290195		 0.00013906		 0.00032711		-0.00017737
O		0.86911520		1.58432319		1.10797084		-0.00016691		-0.00001318		-0.00004060
O		8.33664515		16.80203155		3.99553302		 0.00016691		 0.00001318		 0.00004060
O		7.73892782		1.85911589		3.99553302		 0.00075490		-0.00051675		 0.00003974
O		1.46683057		16.52723983		1.10797084		-0.00075490		 0.00051675		-0.00003974
O		6.13905522		10.80418364		1.10797084		-0.00018140		-0.00004111		-0.00005302
O		3.06670513		7.58217208		3.99553302		 0.00018140		 0.00004111		 0.00005302
O		3.19086754		10.68625672		3.99553302		 0.00077257		-0.00053197		 0.00003189
O		6.01489085		7.70009998		1.10797084		-0.00077257		 0.00053197		-0.00003189
O		2.70816572		4.57682153		4.04860932		 0.00031034		 0.00019667		 0.00030170
O		6.49759365		13.80953419		1.05489355		-0.00031034		-0.00019667		-0.00030170
O		6.13376695		4.71384597		1.05489355		 0.00015844		 0.00000962		-0.00039787
O		3.07199341		13.67250975		4.04860932		-0.00015844		-0.00000962		 0.00039787
O		7.97810476		13.79668296		4.04860932		 0.00028207		 0.00016320		 0.00028285
O		1.22765363		4.58967374		1.05489355		-0.00028207		-0.00016320		-0.00028285
O		1.58570667		13.54098680		1.05489355		 0.00020464		-0.00003044		-0.00040468
O		7.62005270		4.84536990		4.04860932		-0.00020464		 0.00003044		 0.00040468
O		2.91896953		0.11675862		1.49073294		 0.00020233		 0.00053424		-0.00005117
O		5.56491010		0.22259581		3.61276993		-0.00020233		-0.00053424		 0.00005117
O		8.18890857		9.33661907		1.49073294		 0.00022069		 0.00052634		-0.00003042
O		1.01684982		9.04973665		3.61276993		-0.00022069		-0.00052634		 0.00003042
O		0.32111569		3.09754750		3.69493665		-0.00000032		 0.00001853		-0.00039566
O		8.88464368		15.28880822		1.40856721		 0.00000032		-0.00001853		 0.00039566
O		8.40993617		3.42110099		1.40856721		 0.00050742		-0.00001568		 0.00009929
O		0.79582418		14.96525474		3.69493665		-0.00050742		 0.00001568		-0.00009929
O		5.59105571		12.31740893		3.69493665		-0.00001205		-0.00000771		-0.00040713
O		3.61470366		6.06894777		1.40856721		 0.00001205		 0.00000771		 0.00040713
O		3.86187589		12.24824182		1.40856721		 0.00054473		-0.00006011		 0.00010815
O		5.34388348		6.13811489		3.69493665		-0.00054473		 0.00006011		-0.00010815
O		0.12188968		0.00487559		3.65002563		 0.00058404		-0.00005114		 0.00027669
O		8.36198995		0.33447983		1.45347822		-0.00058404		 0.00005114		-0.00027669
O		5.39182970		9.22473604		3.65002563		 0.00049208		-0.00005381		 0.00025577
O		3.81392967		9.16161968		1.45347822		-0.00049208		 0.00005381		-0.00025577
O		3.36654098		2.55449629		0.50626814		 0.00022856		 0.00024241		-0.00005727
O		5.83921937		15.83185943		4.59723572		-0.00022856		-0.00024241		 0.00005727
O		5.31123610		2.63228362		4.59723572		 0.00011679		-0.00018533		 0.00029149
O		3.89452425		15.75407210		0.50626814		-0.00011679		 0.00018533		-0.00029149
O		8.63648100		11.77435576		0.50626814		 0.00023356		 0.00021479		-0.00004979
O		0.56927936		6.61199997		4.59723572		-0.00023356		-0.00021479		 0.00004979
O		0.76317582		11.45942347		4.59723572		 0.00014196		-0.00021153		 0.00030070
O		8.44258355		6.92693225		0.50626814		-0.00014196		 0.00021153		-0.00030070
Ca		-0.46666603		4.98316469		2.55175193		 0.00016359		-0.00022778		-0.00027053
Ca		-0.14557392		13.01047043		2.55175193		-0.00016359		 0.00022778		 0.00027053
Ca		4.80327399		14.20302514		2.55175193		 0.00017733		-0.00022495		-0.00028104
Ca		4.40248636		4.18333058		2.55175193		-0.00017733		 0.00022495		 0.00028104
Mg		0.00000000		0.00000000		0.00000000		0.00000000		0.00000000		0.00000000
Mg		5.26994002		9.21985947		0.00000000		0.00000000		0.00000000		0.00000000
Mg		0.12748354		3.18710031		0.00000000		 0.00016012		-0.00025140		 0.00008978
Mg		0.59439620		14.85990098		0.00000000		-0.00016012		 0.00025140		-0.00008978
Mg		5.39742356		12.40695977		0.00000000		 0.00016613		-0.00023897		 0.00009263
Mg		5.14245549		6.03276014		0.00000000		-0.00016613		 0.00023897		-0.00009263
Mg		-0.60367868		1.55784350		2.55175193		-0.00011605		-0.00040993		 0.00012034
Mg		-0.00856126		16.43579064		2.55175193		 0.00011605		 0.00040993		-0.00012034
Mg		4.66626134		10.77770493		2.55175193		-0.00012176		-0.00044546		 0.00011543
Mg		4.53949902		7.60865079		2.55175193		 0.00012176		 0.00044546		-0.00011543
H		0.92650898		0.03706016		3.92969785		-0.00059301		-0.00030456		-0.00005797
H		7.55736967		0.30229526		1.17380600		 0.00059301		 0.00030456		 0.00005797
H		6.19644900		9.25692061		3.92969785		-0.00050144		-0.00033703		-0.00002977
H		3.00931037		9.12943511		1.17380600		 0.00050144		 0.00033703		 0.00002977
