# total energy = -9139.75396122 eV

CRYSTAL
PRIMVEC
		5.59964994		0.00000000		0.00000000
		-2.79982497		4.61851288		0.00000000
		0.00000000		0.00000000		7.32400054
PRIMECORD
   14 1
Mg		1.86300410		0.00000000		3.33974378		 0.00033861		0.00000000		 0.00025609
Mg		-0.93150177		1.53657978		3.33974378		-0.00030240		 0.00026871		-0.00019011
Mg		1.86832320		3.08193421		3.33974378		-0.00030240		-0.00026871		-0.00019011
Si		0.00000000		3.07900896		0.56394803		-0.00015829		-0.00003966		 0.00011020
Si		2.79982497		1.53950504		0.56394803		-0.00015829		 0.00003966		 0.00011020
O		0.00000000		3.07900896		2.13714280		-0.00015902		-0.00012806		 0.00058645
O		2.79982497		1.53950504		2.13714280		-0.00015902		 0.00012806		 0.00058645
O		2.80542518		0.00000000		7.27273183		 0.00040333		-0.00000000		-0.00040912
O		-1.40271175		2.31387503		7.27273183		 0.00003462		-0.00034566		-0.00031890
O		1.39711322		2.30463785		7.27273183		 0.00003462		 0.00034566		-0.00031890
O		3.70696770		0.00000000		4.33580783		-0.00090662		-0.00000000		-0.00014332
O		-1.85348413		3.05745590		4.33580783		 0.00061121		-0.00009447		 0.00014282
O		0.94634084		1.56105809		4.33580783		 0.00061121		 0.00009447		 0.00014282
O		0.00000000		0.00000000		2.21917207		 0.00011244		0.00000000		-0.00036457
