# total energy = -9138.74036648 eV

CRYSTAL
PRIMVEC
		5.19967506		0.00000000		0.00000000
		-2.59983753		4.61851258		0.00000000
		0.00000000		0.00000000		7.32400230
PRIMECORD
   14 1
Mg		1.72993189		0.00000000		3.33974401		-0.00072244		-0.00000000		 0.00077551
Mg		-0.86496595		1.53657990		3.33974401		 0.00035590		-0.00008674		 0.00006472
Mg		1.73487210		3.08193424		3.33974401		 0.00035590		 0.00008674		 0.00006472
Si		0.00000000		3.07900890		0.56394792		 0.00011582		-0.00026592		-0.00084630
Si		2.59983805		1.53950523		0.56394792		 0.00011582		 0.00026592		-0.00084630
O		0.00000000		3.07900890		2.13714288		-0.00005390		-0.00049382		 0.00021317
O		2.59983805		1.53950523		2.13714288		-0.00005390		 0.00049382		 0.00021317
O		2.60503720		0.00000000		7.27273195		 0.00008834		0.00000000		-0.00009382
O		-1.30251912		2.31387516		7.27273195		 0.00048098		-0.00046629		-0.00026679
O		1.29731893		2.30463794		7.27273195		 0.00048098		 0.00046629		-0.00026679
O		3.44218489		0.00000000		4.33580780		-0.00014815		-0.00000000		-0.00055773
O		-1.72109192		3.05745625		4.33580780		-0.00013120		-0.00085127		 0.00058591
O		0.87874508		1.56105789		4.33580780		-0.00013120		 0.00085127		 0.00058591
O		0.00000000		0.00000000		2.21917192		-0.00075293		-0.00000000		 0.00037462
