# total energy = -20638.5742144 eV

CRYSTAL
PRIMVEC
		10.20140980		0.00000000		0.00000000
		0.00000000		6.28265044		0.00000000
		0.00000000		0.00000000		4.75533617
PRIMECORD
   28 1
Mg		0.00000000		0.00000000		0.00000000		0.00000000		0.00000000		0.00000000
Mg		5.10070490		0.00000000		2.37767013		0.00000000		0.00000000		0.00000000
Mg		0.00000000		3.14132726		0.00000000		0.00000000		0.00000000		-0.00000000
Mg		5.10070490		3.14132726		2.37767013		0.00000000		0.00000000		0.00000000
Mg		2.82885094		1.57066312		4.71492022		-0.00003002		0.00000000		 0.00008480
Mg		7.37255886		4.71199038		0.04042003		 0.00003002		0.00000000		-0.00008480
Mg		2.27185396		4.71199038		2.33725010		 0.00003002		0.00000000		 0.00008480
Mg		7.92955584		1.57066312		2.41809015		-0.00003002		0.00000000		-0.00008480
Si		0.95893252		1.57066312		2.02767710		-0.00005923		0.00000000		 0.00021263
Si		9.24247830		4.71199038		2.72766315		 0.00005923		0.00000000		-0.00021263
Si		4.14177340		4.71199038		4.40534722		 0.00005923		0.00000000		 0.00021263
Si		6.05963742		1.57066312		0.34999303		-0.00005923		0.00000000		-0.00021263
O		0.93444914		1.57066312		3.63926215		 0.00023563		0.00000000		-0.00025695
O		9.26696066		4.71199038		1.11607810		-0.00023563		0.00000000		 0.00025695
O		4.16625576		4.71199038		1.26159203		-0.00023563		0.00000000		-0.00025695
O		6.03515404		1.57066312		3.49374822		 0.00023563		0.00000000		 0.00025695
O		4.55901004		1.57066312		1.05140626		 0.00009776		0.00000000		-0.00009414
O		5.64239976		4.71199038		3.70393501		-0.00009776		0.00000000		 0.00009414
O		0.54169486		4.71199038		3.42907639		-0.00009776		0.00000000		-0.00009414
O		9.65971596		1.57066312		1.32626386		 0.00009776		0.00000000		 0.00009414
O		1.65976937		0.20858415		1.32103258		-0.00046294		 0.00014288		-0.00042506
O		8.54164042		6.07407037		3.43430665		 0.00046294		-0.00014288		 0.00042506
O		3.44093552		6.07407037		3.69870271		 0.00046294		-0.00014288		-0.00042506
O		6.76047529		0.20858415		1.05663652		-0.00046294		 0.00014288		 0.00042506
O		8.54164042		3.34991141		3.43430665		 0.00046294		 0.00014288		 0.00042506
O		1.65976937		2.93274311		1.32103258		-0.00046294		-0.00014288		-0.00042506
O		6.76047529		2.93274311		1.05663652		-0.00046294		-0.00014288		 0.00042506
O		3.44093552		3.34991141		3.69870271		 0.00046294		 0.00014288		-0.00042506
