# total energy = -41273.6938592 eV

CRYSTAL
PRIMVEC
		5.69829968		0.00000000		0.00000000
		0.00000000		11.43799751		0.00000000
		0.00000000		0.00000000		7.84377220
PRIMECORD
   56 1
Mg		0.00000000		0.00000000		0.00000000		0.00000000		0.00000000		0.00000000
Mg		0.00000000		5.71899990		0.00000000		0.00000000		0.00000000		0.00000000
Mg		2.84914984		5.71899990		3.92188496		0.00000000		0.00000000		0.00000000
Mg		2.84914984		0.00000000		3.92188496		0.00000000		0.00000000		0.00000000
Mg		0.00000000		2.85949966		7.60924158		0.00000000		-0.00000001		 0.00008336
Mg		0.00000000		8.57849956		0.23452891		0.00000000		 0.00000001		-0.00008336
Mg		2.84914984		8.57849956		3.68735605		0.00000000		 0.00000001		 0.00008338
Mg		2.84914984		2.85949966		4.15641387		0.00000000		-0.00000001		-0.00008338
Mg		1.42457492		1.45948897		1.96094276		-0.00000000		 0.00016342		-0.00000000
Mg		4.27372476		9.97851025		5.88282772		0.00000000		-0.00016342		0.00000000
Mg		4.27372476		4.25951092		1.96094276		 0.00000001		-0.00016343		-0.00000001
Mg		1.42457492		7.17848887		5.88282772		-0.00000001		 0.00016343		 0.00000001
Mg		4.27372476		7.17848887		5.88282772		 0.00000001		 0.00016343		 0.00000001
Mg		1.42457492		4.25951092		1.96094276		-0.00000001		-0.00016343		-0.00000001
Mg		1.42457492		9.97851025		5.88282772		-0.00000000		-0.00016342		0.00000000
Mg		4.27372476		1.45948897		1.96094276		0.00000000		 0.00016342		-0.00000000
Si		0.00000000		1.37027183		4.83803764		0.00000000		-0.00028254		 0.00012707
Si		0.00000000		10.06772739		3.00573285		0.00000000		 0.00028254		-0.00012707
Si		0.00000000		4.34872692		4.83803764		0.00000000		 0.00028247		 0.00012704
Si		0.00000000		7.08927173		3.00573285		0.00000000		-0.00028247		-0.00012704
Si		2.84914984		7.08927173		0.91615211		0.00000000		-0.00028251		 0.00012706
Si		2.84914984		4.34872692		6.92761781		0.00000000		 0.00028251		-0.00012706
Si		2.84914984		10.06772739		0.91615211		0.00000000		 0.00028258		 0.00012707
Si		2.84914984		1.37027183		6.92761781		0.00000000		-0.00028258		-0.00012707
O		0.00000000		2.85949966		1.69896116		-0.00000000		 0.00000002		-0.00006825
O		0.00000000		8.57849956		6.14480990		-0.00000000		-0.00000002		 0.00006825
O		2.84914984		8.57849956		5.62084555		0.00000000		0.00000000		-0.00006823
O		2.84914984		2.85949966		2.22292494		0.00000000		-0.00000000		 0.00006823
O		0.00000000		2.85949966		5.61927680		0.00000000		 0.00000003		 0.00055897
O		0.00000000		8.57849956		2.22449311		0.00000000		-0.00000003		-0.00055897
O		2.84914984		8.57849956		1.69739185		0.00000000		-0.00000003		 0.00055894
O		2.84914984		2.85949966		6.14637750		0.00000000		 0.00000003		-0.00055894
O		0.00000000		11.32361953		2.00643685		0.00000000		-0.00009397		-0.00043981
O		0.00000000		0.11438026		5.83733364		0.00000000		 0.00009397		 0.00043981
O		0.00000000		5.83337959		2.00643685		0.00000000		 0.00009397		-0.00043983
O		0.00000000		5.60461964		5.83733364		0.00000000		-0.00009397		 0.00043983
O		2.84914984		5.60461964		5.92832181		0.00000000		-0.00009396		-0.00043983
O		2.84914984		5.83337959		1.91544868		0.00000000		 0.00009396		 0.00043983
O		2.84914984		0.11438026		5.92832181		0.00000000		 0.00009399		-0.00043980
O		2.84914984		11.32361953		1.91544868		0.00000000		-0.00009399		 0.00043980
O		1.49010480		1.40115491		7.78494181		 0.00004295		 0.00006053		-0.00014991
O		4.20819375		10.03684431		0.05882811		-0.00004295		-0.00006053		 0.00014991
O		4.20819375		4.31784499		7.78494181		-0.00004293		-0.00006052		-0.00014990
O		1.49010480		7.12015481		0.05882811		 0.00004293		 0.00006052		 0.00014990
O		4.20819375		7.12015481		0.05882811		-0.00004293		 0.00006052		 0.00014990
O		1.49010480		4.31784499		7.78494181		 0.00004293		-0.00006052		-0.00014990
O		1.49010480		10.03684431		0.05882811		 0.00004295		-0.00006053		 0.00014991
O		4.20819375		1.40115491		7.78494181		-0.00004295		 0.00006053		-0.00014991
O		4.33925464		7.12015481		3.86305685		 0.00004295		 0.00006053		-0.00014993
O		1.35904504		4.31784499		3.98071249		-0.00004295		-0.00006053		 0.00014993
O		1.35904504		10.03684431		3.86305685		-0.00004293		-0.00006052		-0.00014992
O		4.33925464		1.40115491		3.98071249		 0.00004293		 0.00006052		 0.00014992
O		1.35904504		1.40115491		3.98071249		-0.00004293		 0.00006052		 0.00014992
O		4.33925464		10.03684431		3.86305685		 0.00004293		-0.00006052		-0.00014992
O		4.33925464		4.31784499		3.98071249		 0.00004295		-0.00006053		 0.00014993
O		1.35904504		7.12015481		3.86305685		-0.00004295		 0.00006053		-0.00014993
