# total energy = -41274.9132153 eV

CRYSTAL
PRIMVEC
		5.69829968		0.00000000		0.00000000
		0.00000000		11.43799751		0.00000000
		0.00000000		0.00000000		8.05018171
PRIMECORD
   56 1
Mg		0.00000000		0.00000000		0.00000000		0.00000000		0.00000000		0.00000000
Mg		0.00000000		5.71899990		0.00000000		0.00000000		0.00000000		0.00000000
Mg		2.84914984		5.71899990		4.02509256		0.00000000		0.00000000		0.00000000
Mg		2.84914984		0.00000000		4.02509256		0.00000000		0.00000000		0.00000000
Mg		0.00000000		2.85949966		7.80948439		0.00000000		 0.00000002		 0.00028249
Mg		0.00000000		8.57849956		0.24070074		0.00000000		-0.00000002		-0.00028249
Mg		2.84914984		8.57849956		3.78439182		0.00000000		 0.00000001		 0.00028250
Mg		2.84914984		2.85949966		4.26579273		0.00000000		-0.00000001		-0.00028250
Mg		1.42457492		1.45948897		2.01254600		 0.00000002		-0.00048055		 0.00000002
Mg		4.27372476		9.97851025		6.03763856		-0.00000002		 0.00048055		-0.00000002
Mg		4.27372476		4.25951092		2.01254600		-0.00000002		 0.00048054		0.00000000
Mg		1.42457492		7.17848887		6.03763856		 0.00000002		-0.00048054		-0.00000000
Mg		4.27372476		7.17848887		6.03763856		-0.00000002		-0.00048054		-0.00000000
Mg		1.42457492		4.25951092		2.01254600		 0.00000002		 0.00048054		0.00000000
Mg		1.42457492		9.97851025		6.03763856		 0.00000002		 0.00048055		-0.00000002
Mg		4.27372476		1.45948897		2.01254600		-0.00000002		-0.00048055		 0.00000002
Si		0.00000000		1.37027183		4.96535361		0.00000000		-0.00023397		-0.00015933
Si		0.00000000		10.06772739		3.08483095		0.00000000		 0.00023397		 0.00015933
Si		0.00000000		4.34872692		4.96535361		-0.00000000		 0.00023390		-0.00015935
Si		0.00000000		7.08927173		3.08483095		-0.00000000		-0.00023390		 0.00015935
Si		2.84914984		7.08927173		0.94026219		0.00000000		-0.00023402		-0.00015920
Si		2.84914984		4.34872692		7.10992351		0.00000000		 0.00023402		 0.00015920
Si		2.84914984		10.06772739		0.94026219		-0.00000000		 0.00023401		-0.00015916
Si		2.84914984		1.37027183		7.10992351		-0.00000000		-0.00023401		 0.00015916
O		0.00000000		2.85949966		1.74367002		-0.00000000		 0.00000004		-0.00048373
O		0.00000000		8.57849956		6.30651454		-0.00000000		-0.00000004		 0.00048373
O		2.84914984		8.57849956		5.76876258		0.00000000		-0.00000001		-0.00048368
O		2.84914984		2.85949966		2.28142312		0.00000000		 0.00000001		 0.00048368
O		0.00000000		2.85949966		5.76715281		0.00000000		 0.00000003		 0.00077038
O		0.00000000		8.57849956		2.28303175		0.00000000		-0.00000003		-0.00077038
O		2.84914984		8.57849956		1.74205968		0.00000000		-0.00000003		 0.00077038
O		2.84914984		2.85949966		6.30812488		0.00000000		 0.00000003		-0.00077038
O		0.00000000		11.32361953		2.05923672		0.00000000		-0.00004011		-0.00018283
O		0.00000000		0.11438026		5.99094783		0.00000000		 0.00004011		 0.00018283
O		0.00000000		5.83337959		2.05923672		0.00000000		 0.00004012		-0.00018282
O		0.00000000		5.60461964		5.99094783		0.00000000		-0.00004012		 0.00018282
O		2.84914984		5.60461964		6.08432986		-0.00000000		-0.00004019		-0.00018276
O		2.84914984		5.83337959		1.96585470		-0.00000000		 0.00004019		 0.00018276
O		2.84914984		0.11438026		6.08432986		0.00000000		 0.00004019		-0.00018274
O		2.84914984		11.32361953		1.96585470		0.00000000		-0.00004019		 0.00018274
O		1.49010480		1.40115491		7.98980879		-0.00021643		 0.00002613		-0.00016041
O		4.20819375		10.03684431		0.06037576		 0.00021643		-0.00002613		 0.00016041
O		4.20819375		4.31784499		7.98980879		 0.00021642		-0.00002610		-0.00016042
O		1.49010480		7.12015481		0.06037576		-0.00021642		 0.00002610		 0.00016042
O		4.20819375		7.12015481		0.06037576		 0.00021642		 0.00002610		 0.00016042
O		1.49010480		4.31784499		7.98980879		-0.00021642		-0.00002610		-0.00016042
O		1.49010480		10.03684431		0.06037576		-0.00021643		-0.00002613		 0.00016041
O		4.20819375		1.40115491		7.98980879		 0.00021643		 0.00002613		-0.00016041
O		4.33925464		7.12015481		3.96471566		-0.00021636		 0.00002612		-0.00016046
O		1.35904504		4.31784499		4.08546890		 0.00021636		-0.00002612		 0.00016046
O		1.35904504		10.03684431		3.96471566		 0.00021639		-0.00002612		-0.00016045
O		4.33925464		1.40115491		4.08546890		-0.00021639		 0.00002612		 0.00016045
O		1.35904504		1.40115491		4.08546890		 0.00021639		 0.00002612		 0.00016045
O		4.33925464		10.03684431		3.96471566		-0.00021639		-0.00002612		-0.00016045
O		4.33925464		4.31784499		4.08546890		-0.00021636		-0.00002612		 0.00016046
O		1.35904504		7.12015481		3.96471566		 0.00021636		 0.00002612		-0.00016046
