# total energy = -41274.9815939 eV

CRYSTAL
PRIMVEC
		5.69829968		0.00000000		0.00000000
		0.00000000		11.43799751		0.00000000
		0.00000000		0.00000000		8.66942733
PRIMECORD
   56 1
Mg		0.00000000		0.00000000		0.00000000		0.00000000		0.00000000		0.00000000
Mg		0.00000000		5.71899990		0.00000000		0.00000000		0.00000000		0.00000000
Mg		2.84914984		5.71899990		4.33471480		0.00000000		0.00000000		0.00000000
Mg		2.84914984		0.00000000		4.33471480		0.00000000		0.00000000		0.00000000
Mg		0.00000000		2.85949966		8.41021339		0.00000000		-0.00000000		-0.00036606
Mg		0.00000000		8.57849956		0.25921622		0.00000000		0.00000000		 0.00036606
Mg		2.84914984		8.57849956		4.07549858		0.00000000		0.00000000		-0.00036607
Mg		2.84914984		2.85949966		4.59393103		0.00000000		-0.00000000		 0.00036607
Mg		1.42457492		1.45948897		2.16735797		-0.00000000		 0.00055754		-0.00000000
Mg		4.27372476		9.97851025		6.50207278		0.00000000		-0.00055754		0.00000000
Mg		4.27372476		4.25951092		2.16735797		-0.00000000		-0.00055752		-0.00000000
Mg		1.42457492		7.17848887		6.50207278		0.00000000		 0.00055752		0.00000000
Mg		4.27372476		7.17848887		6.50207278		-0.00000000		 0.00055752		0.00000000
Mg		1.42457492		4.25951092		2.16735797		0.00000000		-0.00055752		-0.00000000
Mg		1.42457492		9.97851025		6.50207278		-0.00000000		-0.00055754		0.00000000
Mg		4.27372476		1.45948897		2.16735797		0.00000000		 0.00055754		-0.00000000
Si		0.00000000		1.37027183		5.34730494		0.00000000		-0.00044555		 0.00000266
Si		0.00000000		10.06772739		3.32212581		0.00000000		 0.00044555		-0.00000266
Si		0.00000000		4.34872692		5.34730494		-0.00000000		 0.00044559		 0.00000269
Si		0.00000000		7.08927173		3.32212581		-0.00000000		-0.00044559		-0.00000269
Si		2.84914984		7.08927173		1.01259013		0.00000000		-0.00044553		 0.00000259
Si		2.84914984		4.34872692		7.65684061		0.00000000		 0.00044553		-0.00000259
Si		2.84914984		10.06772739		1.01259013		0.00000000		 0.00044553		 0.00000260
Si		2.84914984		1.37027183		7.65684061		0.00000000		-0.00044553		-0.00000260
O		0.00000000		2.85949966		1.87779887		0.00000000		-0.00000005		-0.00025787
O		0.00000000		8.57849956		6.79163187		0.00000000		 0.00000005		 0.00025787
O		2.84914984		8.57849956		6.21251368		-0.00000000		 0.00000003		-0.00025785
O		2.84914984		2.85949966		2.45691707		-0.00000000		-0.00000003		 0.00025785
O		0.00000000		2.85949966		6.21077968		0.00000000		-0.00000000		 0.00017202
O		0.00000000		8.57849956		2.45864992		0.00000000		0.00000000		-0.00017202
O		2.84914984		8.57849956		1.87606488		0.00000000		-0.00000001		 0.00017208
O		2.84914984		2.85949966		6.79336473		0.00000000		 0.00000001		-0.00017208
O		0.00000000		11.32361953		2.21763977		-0.00000000		 0.00041822		 0.00052757
O		0.00000000		0.11438026		6.45178984		-0.00000000		-0.00041822		-0.00052757
O		0.00000000		5.83337959		2.21763977		0.00000000		-0.00041822		 0.00052758
O		0.00000000		5.60461964		6.45178984		0.00000000		 0.00041822		-0.00052758
O		2.84914984		5.60461964		6.55235571		0.00000000		 0.00041822		 0.00052751
O		2.84914984		5.83337959		2.11707504		0.00000000		-0.00041822		-0.00052751
O		2.84914984		0.11438026		6.55235571		-0.00000000		-0.00041822		 0.00052751
O		2.84914984		11.32361953		2.11707504		-0.00000000		 0.00041822		-0.00052751
O		1.49010480		1.40115491		8.60440973		 0.00010345		-0.00020327		 0.00013567
O		4.20819375		10.03684431		0.06502102		-0.00010345		 0.00020327		-0.00013567
O		4.20819375		4.31784499		8.60440973		-0.00010347		 0.00020328		 0.00013566
O		1.49010480		7.12015481		0.06502102		 0.00010347		-0.00020328		-0.00013566
O		4.20819375		7.12015481		0.06502102		-0.00010347		-0.00020328		-0.00013566
O		1.49010480		4.31784499		8.60440973		 0.00010347		 0.00020328		 0.00013566
O		1.49010480		10.03684431		0.06502102		 0.00010345		 0.00020327		-0.00013567
O		4.20819375		1.40115491		8.60440973		-0.00010345		-0.00020327		 0.00013567
O		4.33925464		7.12015481		4.26969493		 0.00010343		-0.00020326		 0.00013568
O		1.35904504		4.31784499		4.39973582		-0.00010343		 0.00020326		-0.00013568
O		1.35904504		10.03684431		4.26969493		-0.00010344		 0.00020325		 0.00013568
O		4.33925464		1.40115491		4.39973582		 0.00010344		-0.00020325		-0.00013568
O		1.35904504		1.40115491		4.39973582		-0.00010344		-0.00020325		-0.00013568
O		4.33925464		10.03684431		4.26969493		 0.00010344		 0.00020325		 0.00013568
O		4.33925464		4.31784499		4.39973582		 0.00010343		 0.00020326		-0.00013568
O		1.35904504		7.12015481		4.26969493		-0.00010343		-0.00020326		 0.00013568
