# total energy = -41275.039411 eV	

CRYSTAL	
PRIMVEC	
		5.66571111		0.00000000		0.00000000	
		0.00000000		11.35885383		0.00000000	
		0.00000000		0.00000000		8.16331005	
PRIMCOORD
   56 1	
Mg		0.00000000		0.00000000		0.00000000		 0.00000003		-0.00000005		 0.00000001	
Mg		0.00000000		5.67942748		0.00000000		 0.00000003		 0.00000005		 0.00000003	
Mg		2.83285498		5.67942748		4.08165616		-0.00000003		 0.00000006		-0.00000004	
Mg		2.83285498		0.00000000		4.08165616		-0.00000001		-0.00000006		-0.00000003	
Mg		0.00000000		2.83971403		7.93457802		 0.00000001		 0.00000001		 0.00036204	
Mg		0.00000000		8.51914151		0.22873431		 0.00000003		 0.00000001		-0.00036192	
Mg		2.83285555		8.51914151		3.85292186		-0.00000002		 0.00000002		 0.00036188	
Mg		2.83285498		2.83971403		4.31039047		-0.00000001		-0.00000001		-0.00036208	
Mg		1.41642749		1.45166863		2.04082837		 0.00000003		-0.00066211		-0.00000003	
Mg		4.24928248		9.90718691		6.12248396		0.00000000		 0.00066209		 0.00000001	
Mg		4.24928248		4.22775943		2.04082837		0.00000000		 0.00066209		-0.00000003	
Mg		1.41642749		7.13109611		6.12248453		-0.00000002		-0.00066206		-0.00000000	
Mg		4.24928248		7.13109611		6.12248396		0.00000000		-0.00066207		 0.00000002	
Mg		1.41642749		4.22775943		2.04082837		 0.00000001		 0.00066208		-0.00000003	
Mg		1.41642749		9.90718691		6.12248396		 0.00000001		 0.00066206		-0.00000001	
Mg		4.24928248		1.45166863		2.04082837		-0.00000003		-0.00066209		-0.00000003	
Si		0.00000000		1.35988896		5.03858018		 0.00000005		-0.00007450		 0.00000526	
Si		0.00000000		9.99896658		3.12473272		-0.00000004		 0.00007438		-0.00000536	
Si		0.00000000		4.31953852		5.03858018		 0.00000001		 0.00007444		 0.00000528	
Si		0.00000000		7.03931702		3.12473272		-0.00000004		-0.00007435		-0.00000538	
Si		2.83285498		7.03931702		0.95692344		-0.00000000		-0.00007438		 0.00000547	
Si		2.83285498		4.31953909		7.20638888		0.00000000		 0.00007443		-0.00000523	
Si		2.83285498		9.99896658		0.95692344		-0.00000001		 0.00007440		 0.00000543	
Si		2.83285498		1.35988896		7.20638888		-0.00000004		-0.00007445		-0.00000520	
O		0.00000000		2.83971403		1.79436893		-0.00000004		 0.00000005		-0.00027892	
O		0.00000000		8.51914151		6.36894397		 0.00000008		-0.00000003		 0.00027898	
O		2.83285498		8.51914151		5.87602452		-0.00000007		 0.00000002		-0.00027904	
O		2.83285498		2.83971403		2.28728781		 0.00000006		-0.00000001		 0.00027907	
O		0.00000000		2.83971403		5.87691403		 0.00000002		 0.00000003		 0.00030663	
O		0.00000000		8.51914151		2.28639830		 0.00000002		-0.00000002		-0.00030660	
O		2.83285498		8.51914151		1.79525786		-0.00000002		-0.00000003		 0.00030666	
O		2.83285498		2.83971403		6.36805447		-0.00000001		-0.00000000		-0.00030668	
O		0.00000000		11.25946922		2.07512187		 0.00000003		-0.00011985		 0.00001226	
O		0.00000000		0.09938632		6.08819102		-0.00000005		 0.00011996		-0.00001232	
O		0.00000000		5.77881438		2.07512187		0.00000000		 0.00011980		 0.00001229	
O		0.00000000		5.58004116		6.08819102		 0.00000002		-0.00011988		-0.00001229	
O		2.83285498		5.58004116		6.15677804		-0.00000002		-0.00011987		 0.00001219	
O		2.83285498		5.77881438		2.00653486		-0.00000002		 0.00011985		-0.00001228	
O		2.83285498		0.09938632		6.15677804		 0.00000002		 0.00011992		 0.00001218	
O		2.83285498		11.25946922		2.00653486		-0.00000004		-0.00011992		-0.00001231	
O		1.47206398		1.39776955		8.11002069		-0.00043488		 0.00002469		-0.00023597	
O		4.19364599		9.96108599		0.05329164		 0.00043491		-0.00002458		 0.00023590	
O		4.19364542		4.28165851		8.11002069		 0.00043488		-0.00002469		-0.00023598	
O		1.47206398		7.07719703		0.05329164		-0.00043491		 0.00002461		 0.00023593	
O		4.19364542		7.07719703		0.05329164		 0.00043493		 0.00002453		 0.00023592	
O		1.47206398		4.28165851		8.11002069		-0.00043484		-0.00002463		-0.00023604	
O		1.47206455		9.96108599		0.05329164		-0.00043497		-0.00002454		 0.00023593	
O		4.19364542		1.39776955		8.11002069		 0.00043490		 0.00002461		-0.00023602	
O		4.30491953		7.07719703		4.02836453		-0.00043489		 0.00002459		-0.00023592	
O		1.36079043		4.28165851		4.13494780		 0.00043495		-0.00002464		 0.00023605	
O		1.36079100		9.96108599		4.02836453		 0.00043494		-0.00002457		-0.00023589	
O		4.30491953		1.39776898		4.13494780		-0.00043493		 0.00002465		 0.00023604	
O		1.36079043		1.39776898		4.13494780		 0.00043492		 0.00002466		 0.00023597	
O		4.30491953		9.96108599		4.02836453		-0.00043490		-0.00002457		-0.00023591	
O		4.30491953		4.28165851		4.13494780		-0.00043493		-0.00002468		 0.00023598	
O		1.36079100		7.07719703		4.02836453		 0.00043489		 0.00002457		-0.00023590	
