# total energy = -41275.4959527 eV	

CRYSTAL	
PRIMVEC	
		5.71228901		0.00000000		0.00000000	
		0.00000000		11.45105802		0.00000000	
		0.00000000		0.00000000		8.25681915	
PRIMCOORD
   56 1	
Mg		0.00000000		0.00000000		0.00000000		 0.00000004		0.00000000		 0.00000001	
Mg		0.00000000		5.72552901		0.00000000		 0.00000003		0.00000000		 0.00000002	
Mg		2.85614564		5.72552901		4.12841128		 0.00000001		 0.00000002		-0.00000001	
Mg		2.85614564		0.00000000		4.12841128		-0.00000001		-0.00000001		 0.00000001	
Mg		0.00000000		2.86276422		8.01770254		0.00000000		 0.00000001		 0.00040114	
Mg		0.00000000		8.58829323		0.23912003		 0.00000003		-0.00000003		-0.00040124	
Mg		2.85614564		8.58829323		3.88929125		-0.00000000		 0.00000002		 0.00040117	
Mg		2.85614564		2.86276422		4.36753074		 0.00000002		-0.00000003		-0.00040120	
Mg		1.42807311		1.46324187		2.06420564		 0.00000001		-0.00029863		-0.00000003	
Mg		4.28421875		9.98781557		6.19261635		 0.00000002		 0.00029865		-0.00000000	
Mg		4.28421875		4.26228657		2.06420564		-0.00000003		 0.00029861		-0.00000005	
Mg		1.42807311		7.18877088		6.19261635		-0.00000003		-0.00029863		 0.00000003	
Mg		4.28421875		7.18877088		6.19261635		 0.00000002		-0.00029864		 0.00000003	
Mg		1.42807254		4.26228657		2.06420564		 0.00000002		 0.00029861		-0.00000006	
Mg		1.42807311		9.98781557		6.19261635		-0.00000002		 0.00029865		0.00000000	
Mg		4.28421875		1.46324187		2.06420564		-0.00000001		-0.00029862		-0.00000004	
Si		0.00000000		1.37157504		5.09312088		 0.00000003		 0.00009762		 0.00008717	
Si		0.00000000		10.07948241		3.16370111		-0.00000003		-0.00009766		-0.00008713	
Si		0.00000000		4.35395340		5.09312088		0.00000000		-0.00009764		 0.00008720	
Si		0.00000000		7.09710404		3.16370111		-0.00000004		 0.00009769		-0.00008714	
Si		2.85614564		7.09710404		0.96471017		 0.00000002		 0.00009771		 0.00008702	
Si		2.85614564		4.35395340		7.29211240		-0.00000001		-0.00009770		-0.00008705	
Si		2.85614564		10.07948241		0.96471017		 0.00000002		-0.00009771		 0.00008702	
Si		2.85614564		1.37157504		7.29211240		-0.00000003		 0.00009768		-0.00008705	
O		0.00000000		2.86276422		1.79922103		0.00000000		 0.00000001		 0.00015405	
O		0.00000000		8.58829323		6.45760097		 0.00000001		-0.00000000		-0.00015404	
O		2.85614564		8.58829323		5.92763174		-0.00000001		 0.00000002		 0.00015408	
O		2.85614564		2.86276422		2.32919025		-0.00000001		-0.00000002		-0.00015402	
O		0.00000000		2.86276422		5.93041650		-0.00000001		-0.00000000		 0.00000137	
O		0.00000000		8.58829323		2.32640549		 0.00000002		-0.00000002		-0.00000136	
O		2.85614564		8.58829323		1.80200579		-0.00000000		-0.00000002		 0.00000146	
O		2.85614564		2.86276422		6.45481678		 0.00000001		 0.00000002		-0.00000146	
O		0.00000000		11.34308948		2.10476101		 0.00000001		-0.00028202		 0.00016253	
O		0.00000000		0.10796796		6.15206099		0.00000000		 0.00028208		-0.00016256	
O		0.00000000		5.83349697		2.10476101		 0.00000002		 0.00028200		 0.00016252	
O		0.00000000		5.61756105		6.15206099		-0.00000000		-0.00028208		-0.00016259	
O		2.85614564		5.61756048		6.23317172		-0.00000000		-0.00028194		 0.00016248	
O		2.85614564		5.83349697		2.02365027		0.00000000		 0.00028188		-0.00016239	
O		2.85614564		0.10796796		6.23317172		0.00000000		 0.00028195		 0.00016246	
O		2.85614564		11.34308948		2.02365027		-0.00000001		-0.00028189		-0.00016240	
O		1.48829901		1.40781166		8.19995126		 0.00002618		-0.00012450		-0.00027601	
O		4.22399285		10.04324635		0.05687074		-0.00002621		 0.00012452		 0.00027601	
O		4.22399228		4.31771735		8.19995126		-0.00002618		 0.00012460		-0.00027599	
O		1.48829901		7.13334067		0.05687074		 0.00002620		-0.00012457		 0.00027598	
O		4.22399228		7.13334010		0.05687074		-0.00002620		-0.00012452		 0.00027601	
O		1.48829901		4.31771735		8.19995126		 0.00002619		 0.00012454		-0.00027600	
O		1.48829901		10.04324578		0.05687074		 0.00002617		 0.00012457		 0.00027599	
O		4.22399228		1.40781166		8.19995126		-0.00002616		-0.00012456		-0.00027599	
O		4.34444465		7.13334010		4.07153997		 0.00002611		-0.00012453		-0.00027599	
O		1.36784664		4.31771735		4.18528202		-0.00002610		 0.00012454		 0.00027602	
O		1.36784664		10.04324635		4.07153997		-0.00002611		 0.00012457		-0.00027598	
O		4.34444465		1.40781166		4.18528202		 0.00002607		-0.00012458		 0.00027598	
O		1.36784664		1.40781166		4.18528202		-0.00002609		-0.00012453		 0.00027599	
O		4.34444465		10.04324635		4.07153997		 0.00002611		 0.00012454		-0.00027599	
O		4.34444465		4.31771735		4.18528202		 0.00002605		 0.00012460		 0.00027597	
O		1.36784664		7.13334067		4.07153997		-0.00002610		-0.00012460		-0.00027598	
