# total energy = -41274.6749549 eV	

CRYSTAL	
PRIMVEC	
		5.64409746		0.00000000		0.00000000	
		0.00000000		11.31500541		0.00000000	
		0.00000000		0.00000000		8.12176375	
PRIMCOORD
   56 1	
Mg		0.00000000		0.00000000		0.00000000		-0.00000001		-0.00000005		 0.00000008	
Mg		0.00000000		5.65750385		0.00000000		 0.00000005		 0.00000007		 0.00000005	
Mg		2.82204816		5.65750385		4.06088187		0.00000000		 0.00000008		-0.00000007	
Mg		2.82204816		0.00000000		4.06088187		-0.00000002		-0.00000007		-0.00000009	
Mg		0.00000000		2.82875164		7.89721142		0.00000000		-0.00000006		 0.00054725	
Mg		0.00000000		8.48625549		0.22455176		 0.00000002		 0.00000007		-0.00054716	
Mg		2.82204873		8.48625549		3.83632955		-0.00000007		 0.00000003		 0.00054710	
Mg		2.82204816		2.82875164		4.28543363		-0.00000002		-0.00000004		-0.00054722	
Mg		1.41102379		1.44623473		2.03044094		 0.00000004		-0.00089533		-0.00000005	
Mg		4.23307252		9.86877240		6.09132224		-0.00000002		 0.00089527		 0.00000006	
Mg		4.23307252		4.21126912		2.03044094		-0.00000001		 0.00089529		-0.00000004	
Mg		1.41102379		7.10373857		6.09132224		0.00000000		-0.00089523		-0.00000000	
Mg		4.23307252		7.10373857		6.09132224		-0.00000000		-0.00089521		-0.00000000	
Mg		1.41102379		4.21126912		2.03044094		 0.00000002		 0.00089525		-0.00000003	
Mg		1.41102436		9.86877240		6.09132224		-0.00000000		 0.00089529		 0.00000001	
Mg		4.23307252		1.44623473		2.03044094		-0.00000002		-0.00089534		-0.00000005	
Si		0.00000000		1.35423625		5.01416809		 0.00000008		-0.00017413		-0.00017525	
Si		0.00000000		9.96077144		3.10759508		 0.00000004		 0.00017404		 0.00017519	
Si		0.00000000		4.30326760		5.01416809		 0.00000002		 0.00017404		-0.00017524	
Si		0.00000000		7.01174010		3.10759508		 0.00000004		-0.00017398		 0.00017515	
Si		2.82204816		7.01174010		0.95328622		-0.00000007		-0.00017400		-0.00017504	
Si		2.82204816		4.30326760		7.16847696		-0.00000004		 0.00017403		 0.00017522	
Si		2.82204816		9.96077144		0.95328622		 0.00000006		 0.00017407		-0.00017508	
Si		2.82204816		1.35423625		7.16847696		-0.00000004		-0.00017411		 0.00017524	
O		0.00000000		2.82875164		1.79178589		-0.00000002		 0.00000004		-0.00031526	
O		0.00000000		8.48625549		6.32997786		-0.00000003		 0.00000003		 0.00031532	
O		2.82204816		8.48625549		5.85266662		0.00000000		 0.00000008		-0.00031527	
O		2.82204816		2.82875164		2.26909655		 0.00000001		 0.00000002		 0.00031526	
O		0.00000000		2.82875164		5.85256234		-0.00000002		 0.00000009		 0.00068905	
O		0.00000000		8.48625549		2.26920083		 0.00000004		-0.00000004		-0.00068906	
O		2.82204816		8.48625549		1.79168047		-0.00000003		-0.00000008		 0.00068913	
O		2.82204816		2.82875164		6.33008271		 0.00000001		 0.00000009		-0.00068908	
O		0.00000000		11.21955035		2.06217192		0.00000000		-0.00008225		-0.00004481	
O		0.00000000		0.09545735		6.05959126		-0.00000000		 0.00008228		 0.00004480	
O		0.00000000		5.75296119		2.06217192		 0.00000002		 0.00008224		-0.00004483	
O		0.00000000		5.56204650		6.05959126		 0.00000004		-0.00008227		 0.00004478	
O		2.82204816		5.56204593		6.12305379		-0.00000001		-0.00008225		-0.00004477	
O		2.82204816		5.75296119		1.99870995		-0.00000000		 0.00008225		 0.00004477	
O		2.82204816		0.09545735		6.12305379		 0.00000003		 0.00008223		-0.00004481	
O		2.82204816		11.21955035		1.99870938		-0.00000002		-0.00008230		 0.00004481	
O		1.46454849		1.39293169		8.07019413		-0.00058392		 0.00008431		-0.00033492	
O		4.17954782		9.92207543		0.05156961		 0.00058394		-0.00008425		 0.00033483	
O		4.17954782		4.26457215		8.07019356		 0.00058404		-0.00008430		-0.00033490	
O		1.46454849		7.05043554		0.05156961		-0.00058393		 0.00008420		 0.00033480	
O		4.17954782		7.05043554		0.05156961		 0.00058400		 0.00008426		 0.00033478	
O		1.46454849		4.26457158		8.07019356		-0.00058392		-0.00008430		-0.00033489	
O		1.46454849		9.92207600		0.05156961		-0.00058401		-0.00008428		 0.00033474	
O		4.17954782		1.39293169		8.07019356		 0.00058405		 0.00008432		-0.00033492	
O		4.28659722		7.05043554		4.00931226		-0.00058401		 0.00008424		-0.00033484	
O		1.35749967		4.26457158		4.11245149		 0.00058397		-0.00008434		 0.00033495	
O		1.35749967		9.92207600		4.00931169		 0.00058400		-0.00008427		-0.00033475	
O		4.28659722		1.39293169		4.11245149		-0.00058409		 0.00008429		 0.00033485	
O		1.35749967		1.39293169		4.11245149		 0.00058395		 0.00008434		 0.00033487	
O		4.28659722		9.92207543		4.00931226		-0.00058407		-0.00008424		-0.00033476	
O		4.28659722		4.26457158		4.11245149		-0.00058405		-0.00008431		 0.00033492	
O		1.35749967		7.05043554		4.00931226		 0.00058397		 0.00008423		-0.00033480	
