# total energy = -38098.4398569 eV

CRYSTAL
PRIMVEC
		5.69209984		0.00000000		0.00000000
		0.00000000		11.46000138		0.00000000
		0.00000000		0.00000000		8.25299833
PRIMECORD
   58 1
O		1.53572911		1.40843383		8.19440386		-0.00036353		 0.00024413		-0.00011635
O		4.15637074		10.05156584		0.05859618		 0.00036353		-0.00024413		 0.00011635
O		4.15637074		4.32156572		8.19440386		 0.00036353		-0.00024413		-0.00011635
O		1.53572911		7.13843395		0.05859618		-0.00036353		 0.00024413		 0.00011635
O		1.53572911		10.05156584		0.05859618		-0.00036353		-0.00024413		 0.00011635
O		4.15637074		1.40843383		8.19440386		 0.00036353		 0.00024413		-0.00011635
O		4.15637074		7.13843395		0.05859618		 0.00036353		 0.00024413		 0.00011635
O		1.53572911		4.32156572		8.19440386		-0.00036353		-0.00024413		-0.00011635
O		2.84604992		5.60966970		6.23596689		0.00000000		 0.00025110		-0.00037720
O		2.84604992		5.85032997		2.01703315		0.00000000		-0.00025110		 0.00037720
O		2.84604992		0.12032985		6.23596689		0.00000000		-0.00025110		-0.00037720
O		2.84604992		11.33966982		2.01703315		0.00000000		 0.00025110		 0.00037720
O		0.00000000		2.86500006		5.91574985		0.00000000		0.00000000		-0.00011976
O		0.00000000		8.59499961		2.33725019		0.00000000		0.00000000		 0.00011976
O		0.00000000		2.86500006		1.80493071		0.00000000		0.00000000		 0.00026451
O		0.00000000		8.59499961		6.44806876		0.00000000		0.00000000		-0.00026451
O		2.84604992		8.59499961		5.93143101		0.00000000		0.00000000		 0.00003539
O		2.84604992		2.86500006		2.32156903		0.00000000		0.00000000		-0.00003539
O		2.84604992		8.59499961		1.78925011		0.00000000		0.00000000		 0.00056546
O		2.84604992		2.86500006		6.46374993		0.00000000		0.00000000		-0.00056546
O		0.00000000		11.33966982		2.10946716		0.00000000		 0.00003428		 0.00000238
O		0.00000000		0.12032985		6.14353402		0.00000000		-0.00003428		-0.00000238
O		0.00000000		5.85032997		2.10946716		0.00000000		-0.00003428		 0.00000238
O		0.00000000		5.60966970		6.14353402		0.00000000		 0.00003428		-0.00000238
O		4.38177903		7.13843395		4.06790412		-0.00065277		-0.00006007		-0.00026487
O		1.31032081		4.32156572		4.18509592		 0.00065277		 0.00006007		 0.00026487
O		1.31032081		10.05156584		4.06790412		 0.00065277		 0.00006007		-0.00026487
O		4.38177903		1.40843383		4.18509592		-0.00065277		-0.00006007		 0.00026487
O		4.38177903		4.32156572		4.18509592		-0.00065277		 0.00006007		 0.00026487
O		1.31032081		7.13843395		4.06790412		 0.00065277		-0.00006007		-0.00026487
O		1.31032081		1.40843383		4.18509592		 0.00065277		-0.00006007		 0.00026487
O		4.38177903		10.05156584		4.06790412		-0.00065277		 0.00006007		-0.00026487
H		2.84604992		8.59499961		4.88165013		0.00000000		0.00000000		 0.00045222
H		2.84604992		2.86500006		3.37135105		0.00000000		0.00000000		-0.00045222
H		0.00000000		2.86500006		2.85471273		0.00000000		0.00000000		 0.00030512
H		0.00000000		8.59499961		5.39828674		0.00000000		0.00000000		-0.00030512
Mg		2.84604992		5.73000012		4.12649974		0.00000000		-0.00000000		-0.00000000
Mg		2.84604992		0.00000000		4.12649974		0.00000000		0.00000000		-0.00000000
Mg		0.00000000		0.00000000		0.00000000		0.00000000		0.00000000		0.00000000
Mg		0.00000000		5.73000012		0.00000000		-0.00000000		0.00000000		0.00000000
Mg		1.42302496		1.44854378		2.06325015		-0.00040121		 0.00017696		 0.00012799
Mg		4.26907488		10.01145589		6.18974989		 0.00040121		-0.00017696		-0.00012799
Mg		4.26907488		4.28145577		2.06325015		 0.00040121		-0.00017696		 0.00012799
Mg		1.42302496		7.17854390		6.18974989		-0.00040121		 0.00017696		-0.00012799
Mg		1.42302496		10.01145589		6.18974989		-0.00040121		-0.00017696		-0.00012799
Mg		4.26907488		1.44854378		2.06325015		 0.00040121		 0.00017696		 0.00012799
Mg		4.26907488		7.17854390		6.18974989		 0.00040121		 0.00017696		-0.00012799
Mg		1.42302496		4.28145577		2.06325015		-0.00040121		-0.00017696		 0.00012799
Mg		0.00000000		2.86500006		8.00623499		0.00000000		0.00000000		 0.00040921
Mg		0.00000000		8.59499961		0.24676505		0.00000000		0.00000000		-0.00040921
Si		2.84604992		7.10634588		0.96230014		0.00000000		-0.00019563		-0.00003590
Si		2.84604992		4.35365379		7.29070104		0.00000000		 0.00019563		 0.00003590
Si		2.84604992		10.08365392		0.96230014		0.00000000		 0.00019563		-0.00003590
Si		2.84604992		1.37634576		7.29070104		0.00000000		-0.00019563		 0.00003590
Si		0.00000000		1.37634576		5.08879987		-0.00000000		-0.00023920		-0.00055932
Si		0.00000000		10.08365392		3.16420017		-0.00000000		 0.00023920		 0.00055932
Si		0.00000000		4.35365379		5.08879987		0.00000000		 0.00023920		-0.00055932
Si		0.00000000		7.10634588		3.16420017		0.00000000		-0.00023920		 0.00055932
