# total energy = -35731.4213683 eV	

CRYSTAL	
PRIMVEC	
		7.86029782		0.00000000		0.62882225	
		-3.93015285		6.80721671		-0.31441507	
		0.76583918		0.00000000		9.57300161	
PRIMCOORD
   46 1	
Mg		1.43394892		3.09524298		3.78339113		-0.00191754		-0.00071890		-0.00061668	
Mg		0.97569289		6.24562391		3.74673105		-0.00167036		-0.00106622		 0.00006106	
Mg		-1.52348936		4.27357205		3.54679562		 0.00273179		-0.00019460		 0.00093918	
Mg		3.46988998		3.71197689		8.70213267		-0.00229056		-0.00077233		-0.00124446	
Mg		3.92814602		0.56159516		8.73879275		-0.00131195		 0.00214328		-0.00130491	
Mg		6.42732827		2.53364703		8.93872818		 0.00008435		-0.00205954		-0.00057249	
Mg		0.89827863		1.65960026		1.14383512		-0.00157327		 0.00249587		 0.00100953	
Mg		2.17321979		6.68060536		1.24582978		 0.00012710		 0.00126697		-0.00051143	
Mg		-2.81256827		5.27423409		0.84696668		 0.00281461		 0.00420687		-0.00172048	
Mg		3.58741102		5.14762039		6.11483093		 0.00061345		 0.00112884		-0.00106505	
Mg		2.31247066		0.12661371		6.01283627		 0.00028888		 0.00020274		-0.00032862	
Mg		7.29825871		1.53298577		6.41169938		 0.00005747		-0.00128590		 0.00152902	
Mg		0.07880524		4.53814579		0.98506233		-0.00057461		-0.00037488		 0.00189033	
Mg		4.39187532		2.26907329		6.08597427		-0.00054159		 0.00018407		 0.00159167	
Si		4.06348336		2.26907329		1.98107120		-0.00053531		 0.00030505		 0.00014285	
Si		0.51625325		4.53814579		6.45315930		 0.00061404		-0.00158490		 0.00146701	
Si		0.30771483		0.00000000		3.84643106		-0.00089919		 0.00145393		-0.00042079	
Si		0.69063521		0.00000000		8.63293187		 0.00042993		-0.00048148		 0.00045270	
O		2.21262004		0.18651761		9.46046100		-0.00016603		 0.00080620		-0.00078424	
O		7.71365122		1.17560703		9.90054274		-0.00107938		-0.00143639		 0.00071320	
O		4.10655900		5.44509522		9.61197605		 0.00177070		 0.00042102		 0.00066549	
O		2.82952979		6.62070225		4.75394667		 0.00049263		-0.00221703		 0.00206662	
O		-2.67150139		5.63161283		4.31386493		 0.00097081		 0.00119931		 0.00042053	
O		0.93559083		1.36212464		4.60243240		 0.00048735		 0.00018569		 0.00054160	
O		3.72889267		0.67255317		4.90579527		 0.00394339		-0.00127179		-0.00026984	
O		5.96986472		2.57176669		5.08507329		-0.00186590		 0.00001426		-0.00000655	
O		3.20461129		3.56289921		4.86385198		-0.00004383		 0.00085518		 0.00014023	
O		1.32612300		6.13466590		9.46944012		 0.00014944		 0.00053651		-0.00097643	
O		-0.91484904		4.23545238		9.29016210		 0.00246820		-0.00078135		 0.00193264	
O		1.85040518		3.24432065		9.51138184		 0.00008912		-0.00029823		 0.00116421	
O		2.58646431		2.00608767		2.41363893		-0.00068988		 0.00069504		 0.00027984	
O		5.09625717		1.08302913		2.61442283		-0.00009485		 0.00045651		-0.00014678	
O		4.64075314		3.71810385		2.57798197		 0.00017809		-0.00277605		-0.00024809	
O		2.08195638		4.80113219		7.12914500		 0.00138433		-0.00018334		 0.00038946	
O		-0.42783806		5.72419073		6.92836109		 0.00061196		 0.00006854		-0.00007763	
O		0.02766676		3.08911601		6.96480195		-0.00099944		-0.00029894		-0.00058562	
O		-0.19325333		2.97271312		2.26545309		-0.00160992		 0.00014494		-0.00315493	
O		1.72780435		4.99445728		2.41913821		-0.00305878		 0.00148542		-0.00095426	
O		-0.98360590		5.64726932		2.20222470		 0.00107205		-0.00254556		-0.00087972	
O		4.87361964		3.83450674		7.42666872		 0.00039017		-0.00156745		-0.00376030	
O		2.95256195		1.81276337		7.27298518		-0.00018791		-0.00015829		 0.00028164	
O		5.66397299		1.15994975		7.48989790		 0.00115109		 0.00102057		 0.00020419	
O		3.93014970		2.26907329		0.31441191		-0.00035562		-0.00131432		 0.00052468	
O		0.38292038		4.53814579		4.78650002		-0.00072682		 0.00013421		 0.00114001	
O		0.17790517		0.00000000		2.22380786		 0.00041825		 0.00107250		 0.00043493	
O		0.56082476		0.00000000		7.01030788		-0.00114645		 0.00090399		-0.00035330	
