# total energy = -35734.1485687 eV	

CRYSTAL	
PRIMVEC	
		7.86030088		0.00000000		-0.94323421	
		-3.93014648		6.80722258		0.47162106	
		-1.14875943		0.00000000		9.57299791	
PRIMCOORD
   46 1	
Mg		0.69548768		3.09524270		3.55567747		-0.00053936		-0.00026771		-0.00018844	
Mg		0.23723237		6.24562357		3.61066919		-0.00004736		 0.00039839		-0.00009828	
Mg		-2.26194996		4.27357176		3.91057088		-0.00001101		 0.00016669		-0.00037096	
Mg		1.77412898		3.71197671		8.14381581		-0.00001236		-0.00037845		-0.00045243	
Mg		2.23238349		0.56159505		8.08882488		 0.00008225		-0.00098161		-0.00039190	
Mg		4.73156662		2.53364685		7.78892240		 0.00011398		 0.00034929		 0.00018606	
Mg		0.68250430		1.65959978		0.98144095		-0.00035586		-0.00013174		 0.00109566	
Mg		1.95744392		6.68060460		0.82844772		 0.00005635		 0.00028348		 0.00055226	
Mg		-3.02834349		5.27423365		1.42674297		 0.00010108		 0.00005457		 0.00022513	
Mg		2.41433598		5.14761963		5.49119454		 0.00016751		 0.00006623		-0.00032919	
Mg		1.13939478		0.12661402		5.64418777		-0.00071999		-0.00006248		-0.00048576	
Mg		6.12518377		1.53298576		5.04589252		-0.00038745		-0.00054303		-0.00001686	
Mg		-0.11820729		4.53814601		0.98506204		-0.00054362		 0.00066493		 0.00023057	
Mg		3.23756185		2.26907261		5.29994390		 0.00082973		-0.00015702		-0.00013880	
Si		3.73015106		2.26907261		1.19504120		 0.00005219		 0.00008594		-0.00029974	
Si		-0.77437909		4.53814601		6.45315884		 0.00003340		 0.00028441		 0.00083104	
Si		-0.46157161		0.00000000		3.84643063		 0.00024725		 0.00003820		 0.00013547	
Si		-1.03595212		0.00000000		8.63293117		-0.00016362		 0.00018587		 0.00018438	
O		0.34396995		0.18651804		9.16742818		 0.00020567		-0.00035454		-0.00017894	
O		5.84500098		1.17560731		8.50730436		-0.00058328		-0.00003230		-0.00029859	
O		2.23791014		5.44509485		8.94015580		 0.00022230		 0.00014589		-0.00032191	
O		1.91817951		6.62070137		4.26094860		 0.00027060		-0.00009288		-0.00058572	
O		-3.58285073		5.63161289		4.92107242		-0.00056115		 0.00014530		 0.00107999	
O		0.02424091		1.36212456		4.48822177		-0.00019457		 0.00018251		 0.00005871	
O		2.80146061		0.67255302		4.23421077		 0.00030344		 0.00105176		 0.00078752	
O		5.04243213		2.57176652		3.96529342		-0.00044456		-0.00025580		-0.00040032	
O		2.27717851		3.56289908		4.29712471		 0.00038011		-0.00015345		-0.00001747	
O		-0.55860888		6.13466560		9.35499360		 0.00058159		-0.00040307		 0.00006203	
O		-2.79958119		4.23545210		9.62390936		-0.00050965		 0.00003253		-0.00038840	
O		-0.03432836		3.24432112		9.29207965		 0.00061696		 0.00001706		-0.00009964	
O		2.14227650		2.00608804		1.93188093		 0.00058016		-0.00066532		-0.00045483	
O		4.65206958		1.08302873		1.63070623		-0.00026738		-0.00014812		 0.00001399	
O		4.19656611		3.71810344		1.68536703		 0.00034072		 0.00021830		-0.00008524	
O		0.68046892		4.80113138		6.82487284		-0.00032317		 0.00009659		-0.00039811	
O		-1.82932494		5.72419068		7.12604753		-0.00063173		 0.00045192		 0.00051152	
O		-1.37382068		3.08911597		7.07138674		-0.00004925		-0.00019676		 0.00015182	
O		-0.65237417		2.97271290		2.34083425		 0.00046024		-0.00065789		 0.00009682	
O		1.26868306		4.99445698		2.11030653		 0.00065547		-0.00037626		 0.00052082	
O		-1.44272677		5.64726894		2.43567621		 0.00051691		 0.00018515		-0.00042773	
O		3.45719858		3.83450651		6.56525840		-0.00077666		 0.00052989		-0.00008198	
O		1.53614056		1.81276322		6.79578533		-0.00014343		 0.00069019		 0.00059513	
O		4.24755197		1.15994968		6.47041644		-0.00032885		-0.00061315		-0.00049686	
O		3.93014965		2.26907261		-0.47161789		 0.00034627		 0.00006535		 0.00010627	
O		-0.57437972		4.53814601		4.78649975		 0.00049994		 0.00029107		-0.00020283	
O		-0.26685663		0.00000000		2.22380813		-0.00016069		 0.00000470		-0.00013712	
O		-0.84123714		0.00000000		7.01030788		 0.00009087		-0.00021461		-0.00007719	
