# total energy = -35732.5899847 eV	

CRYSTAL	
PRIMVEC	
		7.86030298		0.00000000		1.25765198	
		-3.93014751		6.80722214		-0.62882201	
		1.53167652		0.00000000		9.57299619	
PRIMCOORD
   46 1	
Mg		1.72933416		3.09524271		3.87447573		-0.00029957		-0.00021652		 0.00000929	
Mg		1.27107778		6.24562387		3.80115522		 0.00080159		-0.00023968		 0.00056298	
Mg		-1.22810503		4.27357213		3.40128587		 0.00025972		 0.00022344		 0.00021366	
Mg		4.14819380		3.71197704		8.92546036		-0.00038866		-0.00007588		 0.00023776	
Mg		4.60645018		0.56159509		8.99878088		-0.00006169		-0.00035199		-0.00024371	
Mg		7.10563299		2.53364682		9.39865022		-0.00025239		-0.00014467		-0.00017863	
Mg		0.98458904		1.65959975		1.20879181		-0.00001927		-0.00006696		-0.00034515	
Mg		2.25952994		6.68060519		1.41278264		-0.00055202		-0.00031150		-0.00024141	
Mg		-2.72625764		5.27423376		0.61505710		-0.00040389		 0.00010154		-0.00084851	
Mg		4.05664108		5.14762000		6.36428611		-0.00036517		-0.00025231		-0.00018661	
Mg		2.78170097		0.12661376		6.16029528		 0.00034518		 0.00045326		 0.00058560	
Mg		7.76748935		1.53298599		6.95802241		 0.00028955		-0.00015697		 0.00023748	
Mg		0.15761028		4.53814624		0.98506188		-0.00003161		 0.00003761		 0.00057642	
Mg		4.85360004		2.26907272		6.40038596		 0.00059948		-0.00022177		 0.00028061	
Si		4.19681597		2.26907272		2.29548332		 0.00015892		 0.00006561		 0.00021826	
Si		1.03250512		4.53814624		6.45315941		 0.00017636		-0.00013643		-0.00057575	
Si		0.61542885		0.00000000		3.84643088		-0.00024865		-0.00000781		-0.00015001	
Si		1.38126870		0.00000000		8.63293216		 0.00022666		-0.00020580		-0.00000976	
O		2.96008041		0.18651803		9.57767444		 0.00000197		 0.00005774		 0.00040270	
O		8.46111039		1.17560701		10.45783898		-0.00018985		-0.00029040		 0.00028677	
O		4.85401875		5.44509472		9.88070384		 0.00009254		-0.00008388		 0.00002493	
O		3.19407033		6.62070173		4.95114685		-0.00037594		 0.00023489		 0.00012231	
O		-2.30696125		5.63161275		4.07098231		 0.00000003		 0.00016379		-0.00070318	
O		1.30013040		1.36212503		4.64811586		-0.00073824		 0.00035435		-0.00010204	
O		4.09986617		0.67255338		5.17442782		-0.00037030		 0.00051448		-0.00021652	
O		6.34083832		2.57176699		5.53298413		-0.00026091		-0.00029617		 0.00022919	
O		3.57558408		3.56289938		5.09054323		 0.00009477		 0.00032866		 0.00041149	
O		2.08001616		6.13466637		9.51521812		-0.00070823		-0.00027710		-0.00006105	
O		-0.16095599		4.23545196		9.15666340		 0.00042410		-0.00023069		 0.00013144	
O		2.60429825		3.24432117		9.59910271		-0.00002770		-0.00020865		 0.00034463	
O		2.76413901		2.00608828		2.60634166		 0.00018031		 0.00039149		-0.00031847	
O		5.27393207		1.08302900		3.00790893		 0.00068442		 0.00013027		-0.00024010	
O		4.81842835		3.71810407		2.93502783		 0.00020302		-0.00003623		-0.00032491	
O		2.64255136		4.80113227		7.25085390		-0.00011530		 0.00003152		-0.00033753	
O		0.13275671		5.72419076		6.84928742		-0.00003461		-0.00016858		-0.00019394	
O		0.58826122		3.08911569		6.92216693		 0.00017594		 0.00022668		 0.00002437	
O		-0.00960487		2.97271336		2.23530125		 0.00005748		 0.00008467		-0.00009511	
O		1.91145334		4.99445712		2.54266980		 0.00025768		-0.00079877		 0.00037520	
O		-0.79995839		5.64726902		2.10884510		 0.00006418		 0.00066930		 0.00038424	
O		5.44018801		3.83450718		7.77123307		-0.00032143		-0.00006007		 0.00012166	
O		3.51913139		1.81276263		7.46386372		 0.00032921		 0.00042995		-0.00027976	
O		6.23054233		1.15994994		7.89769001		-0.00058566		 0.00004216		 0.00023751	
O		3.93014990		2.26907272		0.62882440		 0.00008659		 0.00020290		 0.00008414	
O		0.76583985		4.53814624		4.78649969		 0.00043242		-0.00040412		-0.00048361	
O		0.35580922		0.00000000		2.22380820		 0.00043328		 0.00003167		 0.00009889	
O		1.12164907		0.00000000		7.01030789		-0.00002430		 0.00046696		-0.00006577	
