# total energy = -12324.3380324 eV	

CRYSTAL	
PRIMVEC	
		2.46200063		0.39392120		0.00000000	
		1.28847993		8.05299832		0.00000000	
		0.00000000		0.00000000		6.10799885	
PRIMCOORD
   20 1	
O		0.09405903		0.58786888		1.52699984		-0.00000282		-0.00017472		 0.00010674	
O		1.19442090		7.46513020		4.58099951		 0.00000282		 0.00017472		-0.00010674	
O		1.96929881		4.81132839		1.52699984		-0.00004282		 0.00016541		 0.00008804	
O		1.78118075		3.63559064		4.58099951		 0.00004282		-0.00016541		-0.00008804	
O		0.46771806		2.92323856		2.69362777		 0.00027545		-0.00010342		 0.00021258	
O		0.82076187		5.12976051		3.41437159		-0.00027545		 0.00010342		-0.00021258	
O		0.82076187		5.12976051		5.74762744		-0.00028228		 0.00033013		 0.00009670	
O		0.46771806		2.92323856		0.36037191		 0.00028228		-0.00033013		-0.00009670	
O		2.34295784		7.14669907		2.69362777		 0.00026857		 0.00005676		 0.00026877	
O		1.40752172		1.30022095		3.41437159		-0.00026857		-0.00005676		-0.00026877	
O		1.40752172		1.30022095		5.74762744		-0.00027549		 0.00017327		 0.00014381	
O		2.34295784		7.14669907		0.36037191		 0.00027549		-0.00017327		-0.00014381	
Si		0.00000000		0.00000000		0.00000000		0.00000000		0.00000000		0.00000000	
Si		0.00000000		0.00000000		3.05399968		0.00000000		0.00000000		0.00000000	
Si		1.87523978		4.22345951		0.00000000		0.00000000		0.00000000		0.00000000	
Si		1.87523978		4.22345951		3.05399968		0.00000000		0.00000000		0.00000000	
Mg		0.32598487		2.03740867		4.58099951		 0.00020229		-0.00016593		 0.00007472	
Mg		0.96249481		6.01559040		1.52699984		-0.00020229		 0.00016593		-0.00007472	
Mg		2.20122465		6.26086818		4.58099951		 0.00024286		-0.00059549		 0.00006799	
Mg		1.54925491		2.18605084		1.52699984		-0.00024286		 0.00059549		-0.00006799	
