# total energy = -34531.5087064 eV

CRYSTAL
PRIMVEC
		9.34400001		0.00000000		0.37375963
		0.00000000		5.30799828		0.00000000
		0.05075044		0.00000000		13.26208903
PRIMECORD
   56 1
Si		1.44992794		2.54147007		4.87285746		-0.00001328		 0.00016912		-0.00073245
Si		7.94481970		2.76653008		8.76299307		 0.00001328		-0.00016912		 0.00073245
Si		7.91944542		2.54147007		2.13194668		 0.00001525		 0.00015140		 0.00068093
Si		1.47530222		2.76653008		11.50390292		-0.00001525		-0.00015140		-0.00068093
Si		6.12192795		5.19547015		5.05973821		-0.00001362		 0.00016837		-0.00073128
Si		3.27281970		0.11253000		8.57611232		 0.00001362		-0.00016837		 0.00073128
Si		3.24744541		5.19547015		1.94506687		 0.00001494		 0.00015117		 0.00068051
Si		6.14730130		0.11253000		11.69078273		-0.00001494		-0.00015117		-0.00068051
Mg		4.69737335		2.65400008		6.81792433		0.00000000		0.00000000		0.00000000
Mg		4.67200001		2.65400008		0.18687981		0.00000000		0.00000000		0.00000000
Mg		0.02537428		0.00000000		6.63104452		0.00000000		0.00000000		0.00000000
Mg		0.00000000		0.00000000		0.00000000		0.00000000		0.00000000		0.00000000
O		0.66092836		1.13431951		4.98967792		-0.00047288		 0.00009493		 0.00016985
O		8.73381928		4.17367971		8.64617261		 0.00047288		-0.00009493		-0.00016985
O		8.70844593		1.13431951		2.01512716		 0.00046855		 0.00010306		-0.00016369
O		0.68630171		4.17367971		11.62072244		-0.00046855		-0.00010306		 0.00016369
O		5.33292744		3.78831958		5.17655773		-0.00047276		 0.00009520		 0.00016974
O		4.06182021		1.51967963		8.45929280		 0.00047276		-0.00009520		-0.00016974
O		4.03644593		3.78831958		1.82824734		 0.00046865		 0.00010312		-0.00016374
O		5.35830172		1.51967963		11.80760225		-0.00046865		-0.00010312		 0.00016374
O		2.88828156		2.43743402		5.74442680		 0.00061238		 0.00019276		 0.00026524
O		6.50646608		2.87056614		7.89142373		-0.00061238		-0.00019276		-0.00026524
O		6.48109180		2.43743402		1.26037828		-0.00060297		 0.00019425		-0.00025658
O		2.91365585		2.87056614		12.37547131		 0.00060297		-0.00019425		 0.00025658
O		7.56028157		5.09143409		5.93130661		 0.00061246		 0.00019292		 0.00026526
O		1.83446607		0.21656606		7.70454392		-0.00061246		-0.00019292		-0.00026526
O		1.80909179		5.09143409		1.07349753		-0.00060286		 0.00019436		-0.00025657
O		7.58565585		0.21656606		12.56235113		 0.00060286		-0.00019436		 0.00025657
O		0.63177235		3.65933473		5.67140489		 0.00050651		-0.00076531		-0.00069359
O		8.76297530		1.64866449		7.96444564		-0.00050651		 0.00076531		 0.00069359
O		8.73760195		3.65933473		1.33340112		-0.00051077		-0.00077069		 0.00070098
O		0.65714569		1.64866449		12.30244941		 0.00051077		 0.00077069		-0.00070098
O		5.30377142		1.00533466		5.85828471		 0.00050661		-0.00076541		-0.00069371
O		4.09097716		4.30266456		7.77756582		-0.00050661		 0.00076541		 0.00069371
O		4.06560194		1.00533466		1.14652131		-0.00051064		-0.00077073		 0.00070098
O		5.32914570		4.30266456		12.48932922		 0.00051064		 0.00077073		-0.00070098
O		1.58913676		3.11208099		3.40907906		-0.00017831		-0.00016909		-0.00009688
O		7.80561182		2.19592010		10.22677054		 0.00017831		 0.00016909		 0.00009688
O		7.78023754		3.11208099		3.59572696		 0.00017539		-0.00015719		 0.00013743
O		1.61451104		2.19592010		10.04012358		-0.00017539		 0.00015719		-0.00013743
O		6.26113583		0.45807998		3.59595887		-0.00017823		-0.00016872		-0.00009791
O		3.13361182		4.84992017		10.03989072		 0.00017823		 0.00016872		 0.00009791
O		3.10823753		0.45807998		3.40884714		 0.00017536		-0.00015700		 0.00013783
O		6.28651011		4.84992017		10.22700339		-0.00017536		 0.00015700		-0.00013783
Ca		1.63889687		2.54784030		1.25126995		 0.00091255		 0.00005340		 0.00010735
Ca		7.75585077		2.76015985		12.38457965		-0.00091255		-0.00005340		-0.00010735
Ca		7.73047649		2.54784030		5.75353513		-0.00091258		 0.00005338		-0.00011365
Ca		1.66427116		2.76015985		7.88231540		 0.00091258		-0.00005338		 0.00011365
Ca		6.31089688		5.20183944		1.43814976		 0.00091249		 0.00005344		 0.00010725
Ca		3.08385077		0.10615978		12.19769983		-0.00091249		-0.00005344		-0.00010725
Ca		3.05847648		5.20183944		5.56665438		-0.00091252		 0.00005324		-0.00011366
Ca		6.33627116		0.10615978		8.06919521		 0.00091252		-0.00005324		 0.00011366
Ca		0.01268714		4.93166326		3.31552319		 0.00000050		-0.00006525		-0.00000377
Ca		0.03806143		0.37633689		9.94656771		-0.00000050		 0.00006525		 0.00000377
Ca		4.68468715		2.27766318		3.50240301		 0.00000038		-0.00006521		-0.00000376
Ca		4.71006050		3.03033697		10.13344752		-0.00000038		 0.00006521		 0.00000376
