# total energy = -34529.700309 eV

CRYSTAL
PRIMVEC
		9.34399714		0.00000000		0.74751790
		0.00000000		5.30800042		0.00000000
		0.58200378		0.00000000		13.24287313
PRIMECORD
   56 1
Si		1.64283052		2.54146992		4.92313908		 0.00036245		-0.00017024		-0.00006785
Si		8.28316852		2.76652957		9.06725194		-0.00036245		 0.00017024		 0.00006785
Si		7.99216851		2.54146992		2.44581631		-0.00036692		-0.00011630		 0.00024153
Si		1.93383053		2.76652957		11.54457378		 0.00036692		 0.00011630		-0.00024153
Si		6.31483096		5.19547013		5.29689897		 0.00036127		-0.00017111		-0.00006561
Si		3.61116995		0.11253029		8.69349206		-0.00036127		 0.00017111		 0.00006561
Si		3.32016900		5.19547013		2.07205549		-0.00036811		-0.00011544		 0.00024355
Si		6.60583191		0.11253029		11.91833366		 0.00036811		 0.00011544		-0.00024355
Mg		4.96299952		2.65400021		6.99519458		0.00000000		0.00000000		0.00000000
Mg		4.67199951		2.65400021		0.37375989		0.00000000		0.00000000		0.00000000
Mg		0.29100001		0.00000000		6.62143469		0.00000000		0.00000000		0.00000000
Mg		0.00000000		0.00000000		0.00000000		0.00000000		0.00000000		0.00000000
O		0.85977635		1.13431962		5.00816087		 0.00059618		-0.00005537		-0.00053753
O		9.06622457		4.17367986		8.98222922		-0.00059618		 0.00005537		 0.00053753
O		8.77522362		1.13431962		2.36079359		-0.00057991		-0.00008025		 0.00051252
O		1.15077636		4.17367986		11.62959556		 0.00057991		 0.00008025		-0.00051252
O		5.53177585		3.78831984		5.38192075		 0.00059680		-0.00005491		-0.00053796
O		4.39422506		1.51967965		8.60846840		-0.00059680		 0.00005491		 0.00053796
O		4.10322411		3.78831984		1.98703371		-0.00057948		-0.00008078		 0.00051238
O		5.82277587		1.51967965		12.00335544		 0.00057948		 0.00008078		-0.00051238
O		3.11379894		2.43743421		5.85093679		 0.00033808		 0.00024194		-0.00032865
O		6.81220197		2.87056621		8.13945236		-0.00033808		-0.00024194		 0.00032865
O		6.52120196		2.43743421		1.51801767		-0.00036424		 0.00023377		 0.00029871
O		3.40479896		2.87056621		12.47237242		 0.00036424		-0.00023377		-0.00029871
O		7.78579751		5.09143349		6.22469668		 0.00033790		 0.00024205		-0.00032888
O		2.14020153		0.21656600		7.76569247		-0.00033790		-0.00024205		 0.00032888
O		1.84920151		5.09143349		1.14425778		-0.00036421		 0.00023366		 0.00029847
O		8.07679846		0.21656600		12.84613231		 0.00036421		-0.00023366		-0.00029847
O		0.85797938		3.65933468		5.68762647		 0.00070633		 0.00017253		 0.00049121
O		9.06802154		1.64866480		8.30276362		-0.00070633		-0.00017253		-0.00049121
O		8.77702058		3.65933468		1.68132799		-0.00069422		 0.00018950		-0.00051626
O		1.14897939		1.64866480		12.30906209		 0.00069422		-0.00018950		 0.00051626
O		5.52997888		1.00533541		6.06138729		 0.00070694		 0.00017233		 0.00049090
O		4.39602203		4.30266502		7.92900374		-0.00070694		-0.00017233		-0.00049090
O		4.10502108		1.00533541		1.30756811		-0.00069383		 0.00018990		-0.00051658
O		5.82097890		4.30266502		12.68282198		 0.00069383		-0.00018990		 0.00051658
O		1.72317194		3.11208072		3.46728319		 0.00004065		-0.00014399		-0.00055476
O		8.20282898		2.19591971		10.52310690		-0.00004065		 0.00014399		 0.00055476
O		7.91182896		3.11208072		3.90167221		-0.00003540		-0.00017871		 0.00041494
O		2.01417195		2.19591971		10.08871788		 0.00003540		 0.00017871		-0.00041494
O		6.39517050		0.45807957		3.84104307		 0.00004075		-0.00014366		-0.00055655
O		3.53082853		4.84991992		10.14934702		-0.00004075		 0.00014366		 0.00055655
O		3.23982852		0.45807957		3.52791233		-0.00003509		-0.00017914		 0.00041339
O		6.68617146		4.84991992		10.46247776		 0.00003509		 0.00017914		-0.00041339
Ca		1.68640112		2.54784039		1.31492565		 0.00028322		-0.00046992		 0.00076242
Ca		8.23959885		2.76016003		12.67546351		-0.00028322		 0.00046992		-0.00076242
Ca		7.94859884		2.54784039		6.05402882		-0.00028333		-0.00047100		-0.00073517
Ca		1.97740207		2.76016003		7.93636221		 0.00028333		 0.00047100		 0.00073517
Ca		6.35840157		5.20183967		1.68868553		 0.00028365		-0.00046982		 0.00076277
Ca		3.56759935		0.10615982		12.30170362		-0.00028365		 0.00046982		-0.00076277
Ca		3.27659933		5.20183967		5.68026893		-0.00028306		-0.00047109		-0.00073502
Ca		6.64940158		0.10615982		8.31012210		 0.00028306		 0.00047109		 0.00073502
Ca		0.14550001		4.93166273		3.31071828		-0.00000135		 0.00024175		 0.00001640
Ca		0.43650096		0.37633676		9.93215297		 0.00000135		-0.00024175		-0.00001640
Ca		4.81749951		2.27766252		3.68447817		-0.00000151		 0.00024177		 0.00001670
Ca		5.10849953		3.03033697		10.30591286		 0.00000151		-0.00024177		-0.00001670
