# total energy = -11146.1050712 eV

CRYSTAL
PRIMVEC
		7.08229152		0.00000000		0.00000000
		0.00000000		4.28364965		0.00000000
		0.00000000		0.00000000		7.86432572
PRIMECORD
   12 1
Ca		0.11375726		1.07091167		5.39350751		 0.00004275		-0.00000001		-0.00014648
Ca		6.96854765		3.21273575		2.47078026		-0.00004920		 0.00000003		 0.00015608
Ca		3.42739296		3.21273575		1.46137292		-0.00004197		 0.00000004		-0.00017731
Ca		3.65490525		1.07091167		6.40297437		 0.00003866		-0.00000000		 0.00017067
Si		1.90444279		1.07091167		3.05125787		 0.00011815		-0.00000000		 0.00038790
Si		5.17784947		3.21273575		4.81307306		-0.00011707		-0.00000001		-0.00040364
Si		1.63672083		3.21273575		6.98341998		-0.00012606		-0.00000001		 0.00039882
Si		5.44557516		1.07091241		0.88089755		 0.00012474		-0.00000001		-0.00038373
Mg		1.05979184		1.07091167		0.52781467		-0.00013910		-0.00000003		-0.00046521
Mg		6.02249001		3.21273575		7.33658099		 0.00014455		 0.00000002		 0.00043580
Mg		2.48139113		3.21273575		4.45990833		 0.00011612		0.00000000		-0.00043749
Mg		4.60089072		1.07091167		3.40434893		-0.00011156		-0.00000001		 0.00046460
