# total energy = -11146.6507227 eV

CRYSTAL
PRIMVEC
		7.28087692		0.00000000		0.00000744
		0.00000000		4.35740484		0.00000000
		0.00000744		0.00000000		8.08985498
PRIMECORD
   12 1
Ca		0.13745610		1.08935195		5.51237301		-0.00033927		-0.00000002		 0.00057577
Ca		7.14342677		3.26805437		2.57748569		 0.00033797		 0.00000007		-0.00057744
Ca		3.50299501		3.26805437		1.46744552		 0.00033639		 0.00000003		 0.00057934
Ca		3.77788787		1.08935195		6.62241913		-0.00033814		-0.00000003		-0.00057692
Si		1.95822187		1.08935121		3.10802897		 0.00021262		 0.00000002		 0.00072242
Si		5.32266026		3.26805437		4.98183791		-0.00021277		-0.00000002		-0.00073314
Si		1.68221212		3.26805511		7.15294530		-0.00021474		-0.00000003		 0.00073269
Si		5.59866926		1.08935121		0.93691265		 0.00021448		 0.00000002		-0.00072183
Mg		1.05919953		1.08935121		0.52123980		 0.00056184		-0.00000000		-0.00033648
Mg		6.22168111		3.26805437		7.56862485		-0.00055967		-0.00000001		 0.00033212
Mg		2.58122628		3.26805437		4.56616432		-0.00055590		-0.00000001		-0.00033177
Mg		4.69965288		1.08935121		3.52369587		 0.00055720		-0.00000000		 0.00033524
