# total energy = -11146.4261312 eV

CRYSTAL
PRIMVEC
		7.17290802		0.00000000		-0.00000744
		0.00000000		4.31647190		0.00000000
		-0.00000744		0.00000000		7.97342566
PRIMECORD
   12 1
Ca		0.12324677		1.07911760		5.45286659		 0.00005894		 0.00000002		-0.00015352
Ca		7.04966794		3.23735281		2.52054269		-0.00005931		-0.00000005		 0.00015525
Ca		3.46321170		3.23735281		1.46616344		-0.00005897		-0.00000002		-0.00015553
Ca		3.70970152		1.07911760		6.50727784		 0.00005884		 0.00000001		 0.00015140
Si		1.92859702		1.07911760		3.07711385		 0.00005361		-0.00000001		 0.00018570
Si		5.24431025		3.23735281		4.89629841		-0.00005355		 0.00000002		-0.00017688
Si		1.65784434		3.23735206		7.06381552		-0.00005674		 0.00000003		 0.00017701
Si		5.51506442		1.07911760		0.90960716		 0.00005664		-0.00000002		-0.00018505
Mg		1.06133584		1.07911760		0.51864885		-0.00021846		 0.00000001		 0.00071820
Mg		6.11155654		3.23735281		7.45474184		 0.00021874		 0.00000001		-0.00070867
Mg		2.52512114		3.23735281		4.50538995		 0.00021882		 0.00000002		 0.00071013
Mg		4.64777646		1.07911760		3.46805505		-0.00021856		0.00000000		-0.00071805
