# total energy = -12330.3866206 eV

CRYSTAL
PRIMVEC
		2.27735006		0.00000000		0.00000000
		0.00000000		8.05300133		0.00000000
		0.00000000		0.00000000		6.10800090
PRIMECORD
   20 1
O		0.00000000		0.58786900		1.52700011		0.00000000		-0.00020177		-0.00000968
O		0.00000000		7.46513119		4.58100011		0.00000000		 0.00020177		 0.00000968
O		1.13867503		4.61436921		1.52700011		0.00000000		-0.00020374		-0.00000727
O		1.13867503		3.43863098		4.58100011		0.00000000		 0.00020374		 0.00000727
O		0.00000000		2.92323911		2.69362802		0.00000000		-0.00035992		-0.00031103
O		0.00000000		5.12976108		3.41437220		0.00000000		 0.00035992		 0.00031103
O		0.00000000		5.12976108		5.74762824		0.00000000		 0.00035392		-0.00029604
O		0.00000000		2.92323911		0.36037197		0.00000000		-0.00035392		 0.00029604
O		1.13867503		6.94974023		2.69362802		0.00000000		-0.00037666		-0.00030082
O		1.13867503		1.10326110		3.41437220		0.00000000		 0.00037666		 0.00030082
O		1.13867503		1.10326110		5.74762824		0.00000000		 0.00036197		-0.00030360
O		1.13867503		6.94974023		0.36037197		0.00000000		-0.00036197		 0.00030360
Si		0.00000000		0.00000000		0.00000000		0.00000000		0.00000000		0.00000000
Si		0.00000000		0.00000000		3.05399999		0.00000000		0.00000000		0.00000000
Si		1.13867503		4.02650021		0.00000000		0.00000000		0.00000000		0.00000000
Si		1.13867503		4.02650021		3.05399999		0.00000000		0.00000000		0.00000000
Mg		0.00000000		2.03740914		4.58100011		0.00000000		 0.00002675		 0.00001979
Mg		0.00000000		6.01559127		1.52700011		0.00000000		-0.00002675		-0.00001979
Mg		1.13867503		6.06391026		4.58100011		0.00000000		 0.00003327		 0.00001986
Mg		1.13867503		1.98909106		1.52700011		0.00000000		-0.00003327		-0.00001986
