# total energy = -12342.7529127 eV

CRYSTAL
PRIMVEC
		2.52354976		0.00000000		0.00000000
		0.00000000		8.05299805		0.00000000
		0.00000000		0.00000000		6.10799983
PRIMECORD
   20 1
O		0.00000000		0.58786899		1.52699996		0.00000000		 0.00021874		 0.00000623
O		0.00000000		7.46513032		4.58099962		0.00000000		-0.00021874		-0.00000623
O		1.26177488		4.61436852		1.52699996		0.00000000		 0.00021870		 0.00000587
O		1.26177488		3.43863079		4.58099962		0.00000000		-0.00021870		-0.00000587
O		0.00000000		2.92323865		2.69362767		0.00000000		 0.00036517		-0.00010944
O		0.00000000		5.12976040		3.41437165		0.00000000		-0.00036517		 0.00010944
O		0.00000000		5.12976040		5.74762734		0.00000000		-0.00036178		-0.00012043
O		0.00000000		2.92323865		0.36037199		0.00000000		 0.00036178		 0.00012043
O		1.26177488		6.94973944		2.69362767		0.00000000		 0.00036502		-0.00010933
O		1.26177488		1.10326088		3.41437165		0.00000000		-0.00036502		 0.00010933
O		1.26177488		1.10326088		5.74762734		0.00000000		-0.00036169		-0.00012033
O		1.26177488		6.94973944		0.36037199		0.00000000		 0.00036169		 0.00012033
Si		0.00000000		0.00000000		0.00000000		0.00000000		0.00000000		0.00000000
Si		0.00000000		0.00000000		3.05399966		0.00000000		0.00000000		0.00000000
Si		1.26177488		4.02649953		0.00000000		0.00000000		0.00000000		0.00000000
Si		1.26177488		4.02649953		3.05399966		0.00000000		0.00000000		0.00000000
Mg		0.00000000		2.03740884		4.58099962		0.00000000		-0.00021718		-0.00000203
Mg		0.00000000		6.01559047		1.52699996		0.00000000		 0.00021718		 0.00000203
Mg		1.26177488		6.06390938		4.58099962		-0.00000000		-0.00021709		-0.00000196
Mg		1.26177488		1.98909069		1.52699996		0.00000000		 0.00021709		 0.00000196
