# total energy = -12337.9689996 eV

CRYSTAL
PRIMVEC
		2.40044991		0.00000000		0.00000000
		0.00000000		8.05300055		0.00000000
		0.00000000		0.00000000		6.10800001
PRIMECORD
   20 1
O		0.00000000		0.58786898		1.52699988		0.00000000		-0.00048265		-0.00000290
O		0.00000000		7.46513061		4.58099989		0.00000000		 0.00048265		 0.00000290
O		1.20022496		4.61436878		1.52699988		0.00000000		-0.00048267		-0.00000224
O		1.20022496		3.43863081		4.58099989		0.00000000		 0.00048267		 0.00000224
O		0.00000000		2.92323886		2.69362790		0.00000000		-0.00011803		 0.00023665
O		0.00000000		5.12976074		3.41437187		0.00000000		 0.00011803		-0.00023665
O		0.00000000		5.12976074		5.74762790		0.00000000		 0.00012504		 0.00021581
O		0.00000000		2.92323886		0.36037210		0.00000000		-0.00012504		-0.00021581
O		1.20022496		6.94973985		2.69362790		0.00000000		-0.00011785		 0.00023667
O		1.20022496		1.10326094		3.41437187		0.00000000		 0.00011785		-0.00023667
O		1.20022496		1.10326094		5.74762790		0.00000000		 0.00012470		 0.00021647
O		1.20022496		6.94973985		0.36037210		0.00000000		-0.00012470		-0.00021647
Si		0.00000000		0.00000000		0.00000000		0.00000000		0.00000000		0.00000000
Si		0.00000000		0.00000000		3.05400000		0.00000000		0.00000000		0.00000000
Si		1.20022496		4.02649980		0.00000000		0.00000000		0.00000000		0.00000000
Si		1.20022496		4.02649980		3.05400000		0.00000000		0.00000000		0.00000000
Mg		0.00000000		2.03740899		4.58099989		0.00000000		 0.00078992		-0.00005532
Mg		0.00000000		6.01559085		1.52699988		0.00000000		-0.00078992		 0.00005532
Mg		1.20022496		6.06390974		4.58099989		-0.00000000		 0.00078949		-0.00005490
Mg		1.20022496		1.98909081		1.52699988		0.00000000		-0.00078949		 0.00005490
