# total energy = -20634.1740126 eV

CRYSTAL
PRIMVEC
		10.06180536		0.00000000		0.00574248
		0.00000000		5.84258906		0.00000000
		0.00254772		0.00000000		4.70035118
PRIMECORD
   28 1
Si		8.41710454		2.92129251		4.30041072		 0.00015266		 0.00000003		-0.00013024
Si		1.64725259		2.92129251		0.40567688		-0.00015264		 0.00000004		 0.00012982
Si		3.31363329		0.00000000		4.32746811		-0.00029771		-0.00000004		 0.00069568
Si		6.75072484		0.00000000		0.37861949		 0.00029769		-0.00000003		-0.00069606
Mg		5.03090369		2.92129251		0.00287124		-0.00000002		-0.00000000		0.00000000
Mg		0.00127487		0.00000000		2.35017357		-0.00000001		-0.00000002		 0.00000003
Mg		0.00127487		2.92129251		2.35017357		-0.00000004		 0.00000007		 0.00000004
Mg		5.03217856		0.00000000		2.35304380		-0.00000001		-0.00000001		 0.00000004
Mg		2.60160623		1.50511206		2.35456839		-0.00004406		 0.00003344		 0.00059571
Mg		7.46275089		4.33747296		2.35152022		 0.00004409		-0.00003348		-0.00059562
Mg		7.46275089		1.50511206		2.35152022		 0.00004409		 0.00003347		-0.00059562
Mg		2.60160623		4.33747296		2.35456839		-0.00004408		-0.00003345		 0.00059571
O		3.18308185		2.92129251		1.05569527		 0.00005431		-0.00000001		-0.00018343
O		6.88127527		2.92129251		3.65039334		-0.00005426		-0.00000001		 0.00018345
O		1.67820637		2.92129251		3.50472846		-0.00056238		-0.00000003		 0.00061341
O		8.38615075		2.92129251		1.20135914		 0.00056236		-0.00000001		-0.00061317
O		8.19821192		0.00000000		1.19183754		 0.00017047		 0.00000001		-0.00018776
O		1.86614621		0.00000000		3.51425107		-0.00017045		 0.00000001		 0.00018780
O		3.34896673		0.00000000		1.22956300		-0.00012522		 0.00000006		 0.00050272
O		6.71539141		0.00000000		3.47652460		 0.00012522		-0.00000000		-0.00050248
O		0.94525161		1.62212924		1.17655324		 0.00011148		-0.00037330		 0.00003961
O		9.11910652		4.22045578		3.52953436		-0.00011140		 0.00037332		-0.00003955
O		9.11910652		1.62212924		3.52953436		-0.00011147		-0.00037328		-0.00003956
O		0.94525161		4.22045578		1.17655324		 0.00011137		 0.00037338		 0.00003951
O		5.95609403		1.29456929		1.05823794		 0.00009645		-0.00012947		-0.00043745
O		4.10826309		4.54801573		3.64785067		-0.00009642		 0.00012941		 0.00043746
O		4.10826309		1.29456929		3.64785067		-0.00009639		-0.00012944		 0.00043747
O		5.95609403		4.54801573		1.05823794		 0.00009638		 0.00012937		-0.00043749
