# total energy = -20631.9331578 eV

CRYSTAL
PRIMVEC
		12.30895500		0.00000000		0.49394426
		0.00000000		6.07689842		0.00000000
		0.23434979		0.00000000		4.98546329
PRIMECORD
   28 1
Si		10.32729496		3.03845022		4.48065988		-0.00017065		-0.00000002		-0.00038656
Si		2.21600174		3.03845022		0.99874261		 0.00017042		 0.00000001		 0.00038678
Si		4.61754018		0.00000000		5.00661138		-0.00046963		0.00000000		 0.00036374
Si		7.92576866		0.00000000		0.47279313		 0.00046977		 0.00000002		-0.00036384
Mg		6.15448963		3.03845022		0.24696808		-0.00000010		 0.00000001		-0.00000036
Mg		0.11717591		0.00000000		2.49272457		 0.00000009		-0.00000001		-0.00000034
Mg		0.11717692		3.03845022		2.49273872		 0.00000007		-0.00000002		 0.00000028
Mg		6.27165442		0.00000000		2.73970276		-0.00000011		0.00000000		-0.00000010
Mg		3.45791512		1.56785572		3.10135969		 0.00043825		-0.00067715		-0.00024914
Mg		9.08539372		4.50904471		2.37804381		-0.00043827		 0.00067720		 0.00024927
Mg		9.08539574		1.56785572		2.37804482		-0.00043826		-0.00067721		 0.00024925
Mg		3.45791613		4.50904471		3.10135969		 0.00043823		 0.00067713		-0.00024915
O		3.70276819		3.03845022		1.73649760		 0.00014849		-0.00000002		 0.00084060
O		8.84052750		3.03845022		3.74290691		-0.00014858		 0.00000003		-0.00084041
O		2.53442933		3.03845022		4.36169046		-0.00062260		-0.00000003		 0.00007774
O		10.00886839		3.03845022		1.11771102		 0.00062256		-0.00000001		-0.00007762
O		9.42499265		0.00000000		1.19175868		 0.00007701		-0.00000001		-0.00027271
O		3.11831720		0.00000000		4.28764583		-0.00007691		 0.00000001		 0.00027278
O		4.40995458		0.00000000		1.66945617		-0.00051865		0.00000000		 0.00073822
O		8.13335324		0.00000000		3.80994834		 0.00051878		 0.00000003		-0.00073833
O		1.38312985		1.72042876		1.73235856		-0.00005574		 0.00059307		-0.00028320
O		11.16016685		4.35647066		3.74704190		 0.00005563		-0.00059299		 0.00028331
O		11.16016584		1.72042977		3.74704190		 0.00005567		 0.00059303		 0.00028328
O		1.38312985		4.35647167		1.73235856		-0.00005571		-0.00059304		-0.00028319
O		7.20857741		1.33933030		1.23268295		 0.00046524		 0.00012147		-0.00025930
O		5.33473142		4.73757014		4.24672257		-0.00046511		-0.00012146		 0.00025909
O		5.33473142		1.33933131		4.24672156		-0.00046509		 0.00012144		 0.00025913
O		7.20857741		4.73757014		1.23268194		 0.00046522		-0.00012151		-0.00025925
