# total energy = -20634.5541849 eV

CRYSTAL
PRIMVEC
		10.70137405		0.00000000		0.03116913
		0.00000000		6.13789204		0.00000000
		0.01452807		0.00000000		4.83603749
PRIMECORD
   28 1
Si		8.93250322		3.06894804		4.35933988		-0.00014783		-0.00000000		 0.00015312
Si		1.78340193		3.06894804		0.50786573		 0.00014784		-0.00000000		-0.00015299
Si		3.57491612		0.00000000		4.47122017		 0.00035407		0.00000000		-0.00020210
Si		7.14098903		0.00000000		0.39598544		-0.00035408		-0.00000000		 0.00020219
Mg		5.35068905		3.06894804		0.01558254		 0.00000001		-0.00000000		-0.00000000
Mg		0.00726302		0.00000000		2.41801874		 0.00000003		-0.00000000		-0.00000002
Mg		0.00726302		3.06894804		2.41801976		 0.00000005		-0.00000000		-0.00000001
Mg		5.35795308		0.00000000		2.43360331		-0.00000004		0.00000000		 0.00000001
Mg		2.77738071		1.57460011		2.48454861		 0.00005426		-0.00003609		-0.00008171
Mg		7.93852445		4.56329699		2.38265700		-0.00005427		 0.00003615		 0.00008172
Mg		7.93852445		1.57460011		2.38265700		-0.00005427		-0.00003616		 0.00008173
Mg		2.77738071		4.56329699		2.48454861		 0.00005426		 0.00003610		-0.00008171
O		3.33430521		3.06894804		1.15966752		-0.00004939		-0.00000000		 0.00003196
O		7.38159995		3.06894804		3.70753809		 0.00004935		-0.00000001		-0.00003196
O		1.78992692		3.06894804		3.72124927		-0.00021221		 0.00000001		-0.00042439
O		8.92597823		3.06894804		1.14595634		 0.00021223		-0.00000001		 0.00042423
O		8.60317504		0.00000000		1.22524199		-0.00020485		0.00000000		-0.00012732
O		2.11273113		0.00000000		3.64196362		 0.00020471		 0.00000001		 0.00012732
O		3.58294144		0.00000000		1.26394509		-0.00011524		-0.00000001		 0.00001652
O		7.13296472		0.00000000		3.60326052		 0.00011526		0.00000000		-0.00001654
O		1.06722573		1.76037742		1.30689641		 0.00004956		-0.00015998		 0.00004438
O		9.64867943		4.37751968		3.56030920		-0.00004952		 0.00015999		-0.00004441
O		9.64867943		1.76037742		3.56030920		-0.00004954		-0.00015997		-0.00004439
O		1.06722573		4.37751968		1.30689641		 0.00004958		 0.00015998		 0.00004438
O		6.35263451		1.31564763		1.08914016		-0.00016678		 0.00041531		 0.00008867
O		4.36327065		4.82224947		3.77806545		 0.00016680		-0.00041530		-0.00008867
O		4.36327065		1.31564763		3.77806545		 0.00016677		 0.00041528		-0.00008868
O		6.35263451		4.82224947		1.08914016		-0.00016677		-0.00041530		 0.00008868
