# total energy = -20634.6566742 eV

CRYSTAL
PRIMVEC
		10.21532571		0.00000000		0.01100979
		0.00000000		5.92538996		0.00000000
		0.00499434		0.00000000		4.73726279
PRIMECORD
   28 1
Si		8.53884612		2.96269397		4.31828823		 0.00011566		-0.00000000		 0.00021963
Si		1.68148302		2.96269397		0.42998537		-0.00011563		-0.00000001		-0.00021972
Si		3.37110662		0.00000000		4.36647148		 0.00014875		0.00000000		-0.00017907
Si		6.84922253		0.00000000		0.38180313		-0.00014876		-0.00000000		 0.00017894
Mg		5.10766487		2.96269397		0.00550489		-0.00000002		0.00000000		-0.00000004
Mg		0.00249919		0.00000000		2.36863241		0.00000000		 0.00000002		 0.00000008
Mg		0.00249919		2.96269397		2.36863241		 0.00000001		 0.00000002		 0.00000004
Mg		5.11016407		0.00000000		2.37413730		 0.00000003		 0.00000001		 0.00000001
Mg		2.64266193		1.52518243		2.38789196		 0.00012309		 0.00031120		-0.00004415
Mg		7.57766722		4.40020551		2.36038164		-0.00012307		-0.00031125		 0.00004421
Mg		7.57766722		1.52518243		2.36038164		-0.00012307		 0.00031125		 0.00004421
Mg		2.64266193		4.40020551		2.38789297		 0.00012308		-0.00031121		-0.00004416
O		3.22328022		2.96269397		1.07795749		-0.00023740		 0.00000003		 0.00074510
O		6.99704892		2.96269397		3.67031610		 0.00023731		-0.00000006		-0.00074508
O		1.70167370		2.96269397		3.55921529		-0.00005750		 0.00000003		-0.00058644
O		8.51865443		2.96269397		1.18905931		 0.00005744		-0.00000002		 0.00058650
O		8.30049681		0.00000000		1.20301515		 0.00011088		-0.00000002		-0.00062021
O		1.91983233		0.00000000		3.54525945		-0.00011107		 0.00000004		 0.00062016
O		3.40145279		0.00000000		1.23951832		 0.00002994		-0.00000003		 0.00030021
O		6.81887635		0.00000000		3.50875629		-0.00002990		 0.00000001		-0.00030012
O		0.97683727		1.66028539		1.20817226		-0.00033364		 0.00009848		-0.00010358
O		9.24349086		4.26510255		3.54010133		 0.00033366		-0.00009837		 0.00010356
O		9.24349086		1.66028539		3.54010133		 0.00033373		 0.00009840		 0.00010359
O		0.97683727		4.26510255		1.20817226		-0.00033367		-0.00009851		-0.00010353
O		6.05438244		1.29969607		1.06489537		-0.00018214		 0.00043492		-0.00036013
O		4.16594671		4.62569086		3.68337923		 0.00018225		-0.00043504		 0.00036000
O		4.16594671		1.29969607		3.68337923		 0.00018221		 0.00043506		 0.00036003
O		6.05438244		4.62569086		1.06489537		-0.00018213		-0.00043497		-0.00036005
