# total energy = -20634.44413 eV

CRYSTAL
PRIMVEC
		10.13555781		0.00000000		0.00904845
		0.00000000		5.88091607		0.00000000
		0.00407433		0.00000000		4.71873116
PRIMECORD
   28 1
Si		8.47533915		2.94045905		4.30767374		 0.00007233		-0.00000002		 0.00020318
Si		1.66429501		2.94045905		0.42009779		-0.00007233		-0.00000000		-0.00020323
Si		3.34079785		0.00000000		4.34994365		 0.00010641		 0.00000001		-0.00010690
Si		6.79883631		0.00000000		0.37782687		-0.00010642		 0.00000002		 0.00010689
Mg		5.06777789		2.94045905		0.00452220		-0.00000002		-0.00000000		-0.00000001
Mg		0.00203919		0.00000000		2.35936356		-0.00000002		-0.00000005		 0.00000003
Mg		0.00203919		2.94045905		2.35936356		-0.00000001		-0.00000006		0.00000000
Mg		5.06981708		0.00000000		2.36388576		0.00000000		0.00000000		 0.00000001
Mg		2.62112965		1.51461647		2.37456091		 0.00007570		 0.00018206		-0.00004505
Mg		7.51850552		4.36630163		2.35320960		-0.00007570		-0.00018206		 0.00004508
Mg		7.51850552		1.51461647		2.35320960		-0.00007570		 0.00018206		 0.00004509
Mg		2.62112965		4.36630163		2.37456091		 0.00007569		-0.00018206		-0.00004507
O		3.20310976		2.94045905		1.06846218		-0.00021956		-0.00000004		 0.00062258
O		6.93652541		2.94045905		3.65930935		 0.00021959		 0.00000008		-0.00062255
O		1.68762990		2.94045905		3.53436188		 0.00006730		-0.00000001		-0.00050012
O		8.45200426		2.94045905		1.19340964		-0.00006730		 0.00000004		 0.00050012
O		8.24803299		0.00000000		1.19557318		 0.00007980		-0.00000003		-0.00067511
O		1.89160117		0.00000000		3.53219834		-0.00007987		-0.00000001		 0.00067512
O		3.37370287		0.00000000		1.23758428		 0.00004772		 0.00000001		 0.00019810
O		6.76593129		0.00000000		3.49018624		-0.00004773		-0.00000002		-0.00019807
O		0.96155196		1.63921918		1.19420328		-0.00025202		 0.00012184		-0.00015618
O		9.17808321		4.24169992		3.53356825		 0.00025205		-0.00012178		 0.00015617
O		9.17808321		1.63921918		3.53356825		 0.00025211		 0.00012173		 0.00015619
O		0.96155196		4.24169992		1.19420328		-0.00025209		-0.00012175		-0.00015620
O		6.00382233		1.29657410		1.05983430		-0.00013242		 0.00033802		-0.00027174
O		4.13581183		4.58434399		3.66793722		 0.00013243		-0.00033802		 0.00027170
O		4.13581183		1.29657410		3.66793722		 0.00013239		 0.00033802		 0.00027167
O		6.00382233		4.58434399		1.05983430		-0.00013236		-0.00033797		-0.00027169
