# total energy = -20634.7891879 eV

CRYSTAL
PRIMVEC
		10.52881658		0.00000000		0.02571984
		0.00000000		6.08283299		0.00000000
		0.01197024		0.00000000		4.80362483
PRIMECORD
   28 1
Si		8.79054164		3.04141852		4.35371266		 0.00041610		0.00000000		-0.00022416
Si		1.75023810		3.04141953		0.47563201		-0.00041610		-0.00000001		 0.00022459
Si		3.49754430		0.00000000		4.43302965		 0.00036441		 0.00000001		 0.00003064
Si		7.04323544		0.00000000		0.39631502		-0.00036440		-0.00000000		-0.00003035
Mg		5.26440627		3.04141852		0.01286194		 0.00000001		 0.00000001		 0.00000002
Mg		0.00598411		0.00000000		2.40181039		 0.00000005		 0.00000002		-0.00000001
Mg		0.00598411		3.04141953		2.40181039		 0.00000006		-0.00000001		-0.00000005
Mg		5.27039038		0.00000000		2.41467234		-0.00000004		-0.00000001		-0.00000003
Mg		2.72897706		1.56267839		2.44689998		 0.00021937		-0.00008846		-0.00009349
Mg		7.81180268		4.52015965		2.38244368		-0.00021942		 0.00008849		 0.00009344
Mg		7.81180268		1.56267839		2.38244368		-0.00021945		-0.00008842		 0.00009345
Mg		2.72897706		4.52015965		2.44689998		 0.00021943		 0.00008840		-0.00009349
O		3.30029719		3.04141953		1.12523690		-0.00050050		-0.00000001		 0.00021680
O		7.24048255		3.04141852		3.70410777		 0.00050043		 0.00000001		-0.00021683
O		1.75748393		3.04141953		3.65993819		 0.00044566		 0.00000002		 0.00039545
O		8.78329682		3.04141852		1.16940648		-0.00044564		0.00000000		-0.00039577
O		8.50226511		0.00000000		1.22536735		-0.00028712		-0.00000000		-0.00005794
O		2.03851564		0.00000000		3.60397732		 0.00028708		 0.00000002		 0.00005793
O		3.51350697		0.00000000		1.25312941		 0.00045340		 0.00000008		-0.00010309
O		7.02727277		0.00000000		3.57621526		-0.00045338		-0.00000008		 0.00010293
O		1.03843144		1.73512870		1.26873217		-0.00038982		-0.00009554		-0.00008202
O		9.50234830		4.34770934		3.56061250		 0.00038985		 0.00009555		 0.00008199
O		9.50234830		1.73512870		3.56061149		 0.00038990		-0.00009555		 0.00008200
O		1.03843144		4.34770934		1.26873217		-0.00038985		 0.00009551		-0.00008200
O		6.25111899		1.31133470		1.08426916		-0.00008474		-0.00006638		-0.00001802
O		4.28966075		4.77150334		3.74507551		 0.00008474		 0.00006636		 0.00001802
O		4.28966075		1.31133470		3.74507551		 0.00008476		-0.00006640		 0.00001807
O		6.25112000		4.77150334		1.08426916		-0.00008476		 0.00006640		-0.00001807
