# total energy = -20634.0070768 eV

CRYSTAL
PRIMVEC
		11.05094751		0.00000000		0.07418718
		0.00000000		6.15378496		0.00000000
		0.03476829		0.00000000		4.87405109
PRIMECORD
   28 1
Si		9.23402082		3.07689046		4.37053974		 0.00039637		-0.00000000		 0.00011644
Si		1.85170104		3.07689046		0.57770864		-0.00039651		-0.00000000		-0.00011740
Si		3.76241213		0.00000000		4.54789037		 0.00003625		-0.00000000		 0.00023616
Si		7.32331277		0.00000000		0.40035700		-0.00003628		0.00000000		-0.00023674
Mg		5.52547679		3.07689046		0.03709460		 0.00000005		-0.00000000		-0.00000008
Mg		0.01738414		0.00000000		2.43702352		-0.00000008		0.00000000		-0.00000016
Mg		0.01738617		3.07689046		2.43702858		-0.00000001		-0.00000000		 0.00000013
Mg		5.54286194		0.00000000		2.47412318		 0.00000001		-0.00000000		 0.00000004
Mg		2.88439607		1.57481039		2.56618787		 0.00026863		-0.00029500		-0.00003622
Mg		8.20132681		4.57897053		2.38205950		-0.00026863		 0.00029496		 0.00003636
Mg		8.20132681		1.57481140		2.38205950		-0.00026863		-0.00029495		 0.00003636
Mg		2.88439607		4.57897053		2.56618787		 0.00026864		 0.00029498		-0.00003622
O		3.39551923		3.07689046		1.23916649		 0.00002950		-0.00000001		-0.00084810
O		7.69020263		3.07689046		3.70908088		-0.00002939		 0.00000001		 0.00084819
O		1.86824100		3.07689046		3.82635586		-0.00056062		 0.00000001		 0.00006523
O		9.21748086		3.07689046		1.12189049		 0.00056059		-0.00000001		-0.00006462
O		8.79229472		0.00000000		1.21191094		-0.00023232		 0.00000001		-0.00028288
O		2.29343019		0.00000000		3.73633642		 0.00023251		 0.00000001		 0.00028297
O		3.73945839		0.00000000		1.30886685		 0.00006632		 0.00000001		 0.00012587
O		7.34626550		0.00000000		3.63937950		-0.00006627		-0.00000001		-0.00012552
O		1.12565040		1.76308285		1.38396494		-0.00009475		 0.00009674		-0.00001523
O		9.96007147		4.39069807		3.56428142		 0.00009466		-0.00009682		 0.00001525
O		9.96007147		1.76308285		3.56428142		 0.00009468		 0.00009682		 0.00001524
O		1.12565040		4.39069807		1.38396494		-0.00009476		-0.00009674		-0.00001522
O		6.54811944		1.32470113		1.10425158		-0.00027971		-0.00042090		 0.00002346
O		4.53760445		4.82907979		3.84399579		 0.00027974		 0.00042095		-0.00002340
O		4.53760445		1.32470214		3.84399579		 0.00027975		-0.00042095		-0.00002339
O		6.54811944		4.82907979		1.10425158		-0.00027971		 0.00042091		 0.00002345
