# total energy = -20634.7971431 eV

CRYSTAL
PRIMVEC
		10.30493063		0.00000000		0.01459884
		0.00000000		5.97265421		0.00000000
		0.00669282		0.00000000		4.75705817
PRIMECORD
   28 1
Si		8.61076765		2.98632812		4.32928386		 0.00011167		0.00000000		 0.00005217
Si		1.70085682		2.98632812		0.44237719		-0.00011170		 0.00000002		-0.00005092
Si		3.40595579		0.00000000		4.38579573		 0.00036229		-0.00000001		-0.00009152
Si		6.90566868		0.00000000		0.38586533		-0.00036226		0.00000000		 0.00009273
Mg		5.15246734		2.98632812		0.00730144		-0.00000001		0.00000000		 0.00000006
Mg		0.00334439		0.00000000		2.37852909		 0.00000006		-0.00000005		-0.00000006
Mg		0.00334439		2.98632812		2.37852909		 0.00000006		 0.00000002		-0.00000012
Mg		5.15581274		0.00000000		2.38583053		 0.00000004		-0.00000001		-0.00000009
Mg		2.66695322		1.53657336		2.40451684		 0.00014189		 0.00026568		-0.00010841
Mg		7.64467124		4.43608186		2.36714523		-0.00014194		-0.00026561		 0.00010821
Mg		7.64467124		1.53657336		2.36714523		-0.00014192		 0.00026561		 0.00010822
Mg		2.66695322		4.43608186		2.40451684		 0.00014185		-0.00026568		-0.00010844
O		3.24550301		2.98632812		1.09072238		-0.00030086		-0.00000004		 0.00055228
O		7.06612246		2.98632812		3.68093868		 0.00030078		0.00000000		-0.00055230
O		1.71684780		2.98632812		3.58777099		 0.00013352		-0.00000003		-0.00040818
O		8.59477666		2.98632812		1.18389007		-0.00013349		 0.00000001		 0.00040742
O		8.35929657		0.00000000		1.20984951		-0.00000820		 0.00000001		-0.00040623
O		1.95232789		0.00000000		3.56181255		 0.00000804		-0.00000001		 0.00040619
O		3.43285344		0.00000000		1.24327418		 0.00011617		 0.00000001		 0.00025244
O		6.87877203		0.00000000		3.52838788		-0.00011621		0.00000000		-0.00025316
O		0.99425074		1.68267196		1.22500440		-0.00035807		 0.00003749		-0.00011585
O		9.31737373		4.28998427		3.54665665		 0.00035813		-0.00003742		 0.00011580
O		9.31737373		1.68267196		3.54665665		 0.00035815		 0.00003739		 0.00011578
O		0.99425074		4.28998427		1.22500440		-0.00035812		-0.00003743		-0.00011587
O		6.11117637		1.30323861		1.07012325		-0.00014411		 0.00027019		-0.00026102
O		4.20044809		4.66941661		3.70153882		 0.00014418		-0.00027026		 0.00026096
O		4.20044809		1.30323861		3.70153882		 0.00014417		 0.00027026		 0.00026093
O		6.11117637		4.66941661		1.07012325		-0.00014411		-0.00027019		-0.00026101
