# total energy = -41264.2979001 eV	

CRYSTAL	
PRIMVEC	
		5.69780089		0.00000000		0.68373473	
		0.00000000		11.46199828		0.00000000	
		0.99085153		0.00000000		8.25710185	
PRIMCOORD
   56 1	
Mg		0.00000000		0.00000000		0.00000000		0.00000000		0.00000000		0.00000000	
Mg		0.00000000		5.73099971		0.00000000		0.00000000		0.00000000		0.00000000	
Mg		3.34432621		5.73099971		4.47041771		0.00000000		0.00000000		0.00000000	
Mg		3.34432621		0.00000000		4.47041771		0.00000000		0.00000000		0.00000000	
Mg		0.96092777		2.86550014		8.00773622		 0.00011386		-0.00000000		 0.00030091	
Mg		0.02992376		8.59649986		0.24936390		-0.00011386		0.00000000		-0.00030091	
Mg		3.31440188		8.59649986		4.22105381		 0.00011385		-0.00000000		 0.00030091	
Mg		3.37424997		2.86550014		4.71978276		-0.00011385		0.00000000		-0.00030091	
Mg		1.67216282		1.45452807		2.23520914		-0.00000000		 0.00034388		0.00000000	
Mg		5.01648903		10.00747194		6.70562686		0.00000000		-0.00034388		-0.00000000	
Mg		4.52106269		4.27647222		2.57707708		-0.00000000		 0.00081964		0.00000000	
Mg		2.16758916		7.18552778		6.36375892		0.00000000		-0.00081964		-0.00000000	
Mg		5.01648903		7.18552778		6.70562686		-0.00000000		 0.00034388		-0.00000000	
Mg		1.67216282		4.27647222		2.23520914		0.00000000		-0.00034388		0.00000000	
Mg		2.16758916		10.00747194		6.36375892		0.00000000		 0.00081964		-0.00000000	
Mg		4.52106269		1.45452807		2.57707708		-0.00000000		-0.00081964		0.00000000	
Si		0.61085984		1.37429389		5.09050190		 0.00005715		 0.00015427		 0.00008359	
Si		0.37999227		10.08770611		3.16659822		-0.00005715		-0.00015427		-0.00008359	
Si		0.61085984		4.35670582		5.09050190		 0.00005715		-0.00015426		 0.00008359	
Si		0.37999227		7.10529418		3.16659822		-0.00005715		 0.00015426		-0.00008359	
Si		2.96433394		7.10529418		1.30382007		 0.00005715		 0.00015426		 0.00008359	
Si		3.72431791		4.35670582		7.63701594		-0.00005715		-0.00015426		-0.00008359	
Si		2.96433394		10.08770611		1.30382007		 0.00005715		-0.00015427		 0.00008359	
Si		3.72431791		1.37429389		7.63701594		-0.00005715		 0.00015427		-0.00008359	
O		0.21620410		2.86550014		1.80169912		-0.00043789		 0.00000001		 0.00027820	
O		0.77464801		8.59649986		6.45540101		 0.00043789		-0.00000001		-0.00027820	
O		3.56052974		8.59649986		6.27211683		-0.00043788		0.00000000		 0.00027820	
O		3.12812211		2.86550014		2.66871917		 0.00043788		-0.00000000		-0.00027820	
O		0.70915305		2.86550014		5.90960572		-0.00085135		0.00000000		 0.00046351	
O		0.28169905		8.59649986		2.34749383		 0.00085135		-0.00000000		-0.00046351	
O		3.06262716		8.59649986		2.12292389		-0.00085135		-0.00000000		 0.00046351	
O		3.62602469		2.86550014		6.81791212		 0.00085135		0.00000000		-0.00046351	
O		0.25415397		11.34508707		2.11794616		-0.00037307		-0.00018673		-0.00013738	
O		0.73669813		0.11691293		6.13915397		 0.00037307		 0.00018673		 0.00013738	
O		0.25415397		5.84791322		2.11794616		-0.00037308		 0.00018673		-0.00013738	
O		0.73669813		5.61408679		6.13915397		 0.00037308		-0.00018673		 0.00013738	
O		3.59848019		5.61408679		6.58836387		-0.00037308		-0.00018673		-0.00013739	
O		3.09017281		5.84791322		2.35247213		 0.00037308		 0.00018673		 0.00013739	
O		3.59848019		0.11691293		6.58836387		-0.00037308		 0.00018673		-0.00013739	
O		3.09017281		11.34508707		2.35247213		 0.00037308		-0.00018673		 0.00013739	
O		2.46601301		1.40524086		8.37796586		-0.00045169		 0.00011859		 0.00021544	
O		4.22263884		10.05675800		0.56287015		 0.00045169		-0.00011859		-0.00021544	
O		5.19981682		4.32575885		8.70602195		-0.00034803		-0.00032607		 0.00021199	
O		1.48883503		7.13624115		0.23481406		 0.00034803		 0.00032607		-0.00021199	
O		4.22263884		7.13624115		0.56287015		 0.00045169		 0.00011859		-0.00021545	
O		2.46601301		4.32575885		8.37796586		-0.00045169		-0.00011859		 0.00021545	
O		1.48883503		10.05675800		0.23481406		 0.00034803		-0.00032607		-0.00021198	
O		5.19981682		1.40524086		8.70602195		-0.00034803		 0.00032607		 0.00021198	
O		4.81948712		7.13624115		4.59128402		-0.00045169		 0.00011859		 0.00021544	
O		1.86916473		4.32575885		4.34955198		 0.00045169		-0.00011859		-0.00021544	
O		1.85549118		10.05675800		4.23560423		-0.00034803		-0.00032607		 0.00021198	
O		4.83316124		1.40524086		4.70523177		 0.00034803		 0.00032607		-0.00021198	
O		1.86916473		1.40524086		4.34955198		 0.00045169		 0.00011859		-0.00021544	
O		4.81948712		10.05675800		4.59128402		-0.00045169		-0.00011859		 0.00021544	
O		4.83316124		4.32575885		4.70523177		 0.00034803		-0.00032607		-0.00021199	
O		1.85549118		7.13624115		4.23560423		-0.00034803		 0.00032607		 0.00021199	
