# total energy = -41264.2979001 eV	

CRYSTAL	
PRIMVEC	
		5.69780089		0.00000000		-0.68373473	
		0.00000000		11.46199828		0.00000000	
		-0.99085153		0.00000000		8.25710185	
PRIMCOORD
   56 1	
Mg		0.00000000		0.00000000		0.00000000		0.00000000		0.00000000		0.00000000	
Mg		0.00000000		5.73099971		0.00000000		0.00000000		0.00000000		0.00000000	
Mg		2.35347411		5.73099971		3.78668184		0.00000000		0.00000000		0.00000000	
Mg		2.35347411		0.00000000		3.78668184		0.00000000		0.00000000		0.00000000	
Mg		-0.96092777		2.86550014		8.00773622		-0.00011386		-0.00000000		 0.00030091	
Mg		-0.02992376		8.59649986		0.24936390		 0.00011386		0.00000000		-0.00030091	
Mg		2.38339787		8.59649986		3.53731794		-0.00011386		-0.00000000		 0.00030091	
Mg		2.32354977		2.86550014		4.03604689		 0.00011386		0.00000000		-0.00030091	
Mg		1.17673705		1.45452807		1.89334121		0.00000000		-0.00081964		0.00000000	
Mg		3.53021116		10.00747194		5.68002304		-0.00000000		 0.00081964		-0.00000000	
Mg		4.02563692		4.27647222		1.55147327		0.00000000		-0.00034388		-0.00000000	
Mg		0.68131071		7.18552778		6.02189098		-0.00000000		 0.00034388		0.00000000	
Mg		3.53021116		7.18552778		5.68002304		-0.00000000		-0.00081965		0.00000000	
Mg		1.17673705		4.27647222		1.89334121		0.00000000		 0.00081965		-0.00000000	
Mg		0.68131071		10.00747194		6.02189098		-0.00000000		-0.00034388		-0.00000000	
Mg		4.02563692		1.45452807		1.55147327		0.00000000		 0.00034388		0.00000000	
Si		-0.61085984		1.37429389		5.09050190		-0.00005715		 0.00015427		 0.00008360	
Si		-0.37999227		10.08770611		3.16659822		 0.00005715		-0.00015427		-0.00008360	
Si		-0.61085984		4.35670582		5.09050190		-0.00005715		-0.00015426		 0.00008360	
Si		-0.37999227		7.10529418		3.16659822		 0.00005715		 0.00015426		-0.00008360	
Si		2.73346580		7.10529418		0.62008419		-0.00005715		 0.00015426		 0.00008360	
Si		1.97348184		4.35670582		6.95328006		 0.00005715		-0.00015426		-0.00008360	
Si		2.73346580		10.08770611		0.62008419		-0.00005715		-0.00015427		 0.00008360	
Si		1.97348184		1.37429389		6.95328006		 0.00005715		 0.00015427		-0.00008360	
O		-0.21620410		2.86550014		1.80169912		 0.00043788		 0.00000001		 0.00027820	
O		-0.77464801		8.59649986		6.45540101		-0.00043788		-0.00000001		-0.00027820	
O		2.13727000		8.59649986		5.58838095		 0.00043787		0.00000000		 0.00027820	
O		2.56967821		2.86550014		1.98498272		-0.00043787		-0.00000000		-0.00027820	
O		-0.70915305		2.86550014		5.90960572		 0.00085137		0.00000000		 0.00046355	
O		-0.28169905		8.59649986		2.34749383		-0.00085137		-0.00000000		-0.00046355	
O		2.63517316		8.59649986		1.43918801		 0.00085137		-0.00000000		 0.00046355	
O		2.07177505		2.86550014		6.13417624		-0.00085137		0.00000000		-0.00046355	
O		-0.25415397		11.34508707		2.11794616		 0.00037309		-0.00018675		-0.00013739	
O		-0.73669813		0.11691293		6.13915397		-0.00037309		 0.00018675		 0.00013739	
O		-0.25415397		5.84791322		2.11794616		 0.00037309		 0.00018674		-0.00013739	
O		-0.73669813		5.61408679		6.13915397		-0.00037309		-0.00018674		 0.00013739	
O		2.09932070		5.61408679		5.90462799		 0.00037309		-0.00018674		-0.00013739	
O		2.60762808		5.84791322		1.66873625		-0.00037309		 0.00018674		 0.00013739	
O		2.09932070		0.11691293		5.90462799		 0.00037309		 0.00018675		-0.00013739	
O		2.60762808		11.34508707		1.66873625		-0.00037309		-0.00018675		 0.00013739	
O		0.49798292		1.40524086		8.02228607		 0.00034800		 0.00032609		 0.00021201	
O		4.20896472		10.05675800		-0.44892182		-0.00034800		-0.00032609		-0.00021201	
O		3.23178673		4.32575885		7.69422998		 0.00045169		-0.00011858		 0.00021546	
O		1.47516091		7.13624115		-0.12086573		-0.00045169		 0.00011858		-0.00021546	
O		4.20896472		7.13624115		-0.44892182		-0.00034800		 0.00032608		-0.00021201	
O		0.49798292		4.32575885		8.02228607		 0.00034800		-0.00032608		 0.00021201	
O		1.47516091		10.05675800		-0.12086573		-0.00045169		-0.00011858		-0.00021546	
O		3.23178673		1.40524086		7.69422998		 0.00045169		 0.00011858		 0.00021546	
O		3.84230913		7.13624115		3.55186778		 0.00034800		 0.00032609		 0.00021201	
O		0.86463908		4.32575885		4.02149590		-0.00034800		-0.00032609		-0.00021201	
O		0.87831320		10.05675800		3.90754814		 0.00045169		-0.00011858		 0.00021546	
O		3.82863501		1.40524086		3.66581611		-0.00045169		 0.00011858		-0.00021546	
O		0.86463908		1.40524086		4.02149590		-0.00034800		 0.00032609		-0.00021201	
O		3.84230913		10.05675800		3.55186778		 0.00034800		-0.00032609		 0.00021201	
O		3.82863501		4.32575885		3.66581611		-0.00045169		-0.00011858		-0.00021546	
O		0.87831320		7.13624115		3.90754814		 0.00045169		 0.00011858		 0.00021546	
