# total energy = -41270.4810504 eV	

CRYSTAL	
PRIMVEC	
		5.69779836		0.00000000		-0.45582273	
		0.00000000		11.46199954		0.00000000	
		-0.66056998		0.00000000		8.25709907	
PRIMCOORD
   56 1	
Mg		0.00000000		0.00000000		0.00000000		0.00000000		0.00000000		0.00000000	
Mg		0.00000000		5.73099977		0.00000000		0.00000000		0.00000000		0.00000000	
Mg		2.51861591		5.73099977		3.90063817		0.00000000		0.00000000		0.00000000	
Mg		2.51861591		0.00000000		3.90063817		0.00000000		0.00000000		0.00000000	
Mg		-0.64061884		2.86550017		8.00773612		 0.00011919		-0.00000001		-0.00024670	
Mg		-0.01994885		8.59649994		0.24936410		-0.00011919		 0.00000001		 0.00024670	
Mg		2.53856476		8.59649994		3.65127407		 0.00011919		 0.00000001		-0.00024670	
Mg		2.49866705		2.86550017		4.15000284		-0.00011919		-0.00000001		 0.00024670	
Mg		1.25930824		1.45452806		1.95031880		-0.00000000		 0.00019086		-0.00000000	
Mg		3.77792414		10.00747206		5.85095697		0.00000000		-0.00019086		0.00000000	
Mg		4.10820799		4.27647171		1.72240687		-0.00000000		-0.00037753		-0.00000000	
Mg		0.92902382		7.18552783		6.07886891		0.00000000		 0.00037753		0.00000000	
Mg		3.77792414		7.18552783		5.85095697		0.00000000		 0.00019087		0.00000000	
Mg		1.25930824		4.27647171		1.95031880		-0.00000000		-0.00019087		-0.00000000	
Mg		0.92902382		10.00747206		6.07886891		-0.00000000		-0.00037753		0.00000000	
Mg		4.10820799		1.45452806		1.72240687		0.00000000		 0.00037753		-0.00000000	
Si		-0.40724012		1.37429423		5.09050211		 0.00009673		-0.00004251		 0.00024335	
Si		-0.25332815		10.08770589		3.16659810		-0.00009673		 0.00004251		-0.00024335	
Si		-0.40724012		4.35670611		5.09050211		 0.00009673		 0.00004249		 0.00024335	
Si		-0.25332815		7.10529400		3.16659810		-0.00009673		-0.00004249		-0.00024335	
Si		2.77194405		7.10529400		0.73404007		 0.00009673		-0.00004249		 0.00024335	
Si		2.26528776		4.35670611		7.06723570		-0.00009673		 0.00004249		-0.00024335	
Si		2.77194405		10.08770589		0.73404007		 0.00009673		 0.00004251		 0.00024335	
Si		2.26528776		1.37429423		7.06723570		-0.00009673		-0.00004251		-0.00024335	
O		-0.14413590		2.86550017		1.80169927		-0.00022462		-0.00000001		-0.00028565	
O		-0.51643180		8.59649994		6.45540094		 0.00022462		 0.00000001		 0.00028565	
O		2.37448001		8.59649994		5.70233687		-0.00022462		0.00000000		-0.00028565	
O		2.66275180		2.86550017		2.09893890		 0.00022462		-0.00000000		 0.00028565	
O		-0.47276896		2.86550017		5.90960603		-0.00055142		-0.00000001		 0.00030562	
O		-0.18779988		8.59649994		2.34749418		 0.00055142		 0.00000001		-0.00030562	
O		2.70641578		8.59649994		1.55314399		-0.00055142		 0.00000001		 0.00030563	
O		2.33081717		2.86550017		6.24813178		 0.00055142		-0.00000001		-0.00030563	
O		-0.16943607		11.34508669		2.11794576		 0.00025143		 0.00033943		 0.00005450	
O		-0.49113220		0.11691286		6.13915388		-0.00025143		-0.00033943		-0.00005450	
O		-0.16943607		5.84791320		2.11794576		 0.00025144		-0.00033943		 0.00005450	
O		-0.49113220		5.61408692		6.13915388		-0.00025144		 0.00033943		-0.00005450	
O		2.34917983		5.61408692		6.01858393		 0.00025143		 0.00033942		 0.00005450	
O		2.68805198		5.84791320		1.78269184		-0.00025143		-0.00033942		-0.00005450	
O		2.34917983		0.11691286		6.01858393		 0.00025143		-0.00033943		 0.00005449	
O		2.68805198		11.34508669		1.78269184		-0.00025143		 0.00033943		-0.00005449	
O		0.82598828		1.40524125		8.08156574		-0.00008332		-0.00005260		-0.00022196	
O		4.21124411		10.05675773		-0.28028996		 0.00008332		 0.00005260		 0.00022196	
O		3.55979172		4.32575910		7.86286171		-0.00007194		-0.00023166		-0.00083598	
O		1.47744009		7.13624102		-0.06158594		 0.00007194		 0.00023166		 0.00083598	
O		4.21124411		7.13624102		-0.28028996		 0.00008333		-0.00005259		 0.00022196	
O		0.82598828		4.32575910		8.08156574		-0.00008333		 0.00005259		-0.00022196	
O		1.47744009		10.05675773		-0.06158594		 0.00007194		-0.00023165		 0.00083597	
O		3.55979172		1.40524125		7.86286171		-0.00007194		 0.00023165		-0.00083597	
O		4.00517188		7.13624102		3.72510370		-0.00008333		-0.00005259		-0.00022196	
O		1.03205993		4.32575910		4.07617208		 0.00008333		 0.00005259		 0.00022196	
O		1.04117581		10.05675773		3.96222411		-0.00007194		-0.00023165		-0.00083597	
O		3.99605600		1.40524125		3.83905223		 0.00007194		 0.00023165		 0.00083597	
O		1.03205993		1.40524125		4.07617208		 0.00008332		-0.00005260		 0.00022196	
O		4.00517188		10.05675773		3.72510370		-0.00008332		 0.00005260		-0.00022196	
O		3.99605600		4.32575910		3.83905223		 0.00007194		-0.00023166		 0.00083597	
O		1.04117581		7.13624102		3.96222411		-0.00007194		 0.00023166		-0.00083597	
