# total energy = -41274.7657269 eV

CRYSTAL
PRIMVEC
		5.55584201		0.00000000		0.00000000
		0.00000000		11.43800084		0.00000000
		0.00000000		0.00000000		8.25659792
PRIMECORD
   56 1
Mg		0.00000000		0.00000000		0.00000000		0.00000000		0.00000000		0.00000000
Mg		0.00000000		5.71899986		0.00000000		0.00000000		0.00000000		0.00000000
Mg		2.77792100		5.71899986		4.12830007		0.00000000		0.00000000		0.00000000
Mg		2.77792100		0.00000000		4.12830007		0.00000000		0.00000000		0.00000000
Mg		0.00000000		2.85950021		8.00972797		0.00000000		0.00000000		 0.00041427
Mg		0.00000000		8.57850007		0.24687217		0.00000000		-0.00000000		-0.00041427
Mg		2.77792100		8.57850007		3.88142790		0.00000000		-0.00000001		 0.00041428
Mg		2.77792100		2.85950021		4.37517280		0.00000000		 0.00000001		-0.00041428
Mg		1.38896106		1.45948914		2.06414976		-0.00000000		-0.00054382		-0.00000000
Mg		4.16688206		9.97851114		6.19244983		0.00000000		 0.00054382		0.00000000
Mg		4.16688206		4.25951128		2.06414976		-0.00000001		 0.00054379		 0.00000001
Mg		1.38896106		7.17848900		6.19244983		 0.00000001		-0.00054379		-0.00000001
Mg		4.16688206		7.17848900		6.19244983		-0.00000001		-0.00054379		-0.00000001
Mg		1.38896106		4.25951128		2.06414976		 0.00000001		 0.00054379		 0.00000001
Mg		1.38896106		9.97851114		6.19244983		-0.00000000		 0.00054382		0.00000000
Mg		4.16688206		1.45948914		2.06414976		0.00000000		-0.00054382		-0.00000000
Si		0.00000000		1.37027176		5.09267090		0.00000000		-0.00006035		-0.00041474
Si		0.00000000		10.06772797		3.16392924		0.00000000		 0.00006035		 0.00041474
Si		0.00000000		4.34872699		5.09267090		0.00000000		 0.00006033		-0.00041477
Si		0.00000000		7.08927218		3.16392924		0.00000000		-0.00006033		 0.00041477
Si		2.77792100		7.08927218		0.96437083		0.00000000		-0.00006037		-0.00041469
Si		2.77792100		4.34872699		7.29222875		0.00000000		 0.00006037		 0.00041469
Si		2.77792100		10.06772797		0.96437083		-0.00000000		 0.00006036		-0.00041472
Si		2.77792100		1.37027176		7.29222875		-0.00000000		-0.00006036		 0.00041472
O		0.00000000		2.85950021		1.78837998		0.00000000		-0.00000000		-0.00016588
O		0.00000000		8.57850007		6.46822127		0.00000000		0.00000000		 0.00016588
O		2.77792100		8.57850007		5.91668006		0.00000000		 0.00000001		-0.00016584
O		2.77792100		2.85950021		2.33992120		0.00000000		-0.00000001		 0.00016584
O		0.00000000		2.85950021		5.91502886		0.00000000		 0.00000002		 0.00013356
O		0.00000000		8.57850007		2.34157184		0.00000000		-0.00000002		-0.00013356
O		2.77792100		8.57850007		1.78672879		0.00000000		 0.00000003		 0.00013356
O		2.77792100		2.85950021		6.46987191		0.00000000		-0.00000003		-0.00013356
O		0.00000000		11.32361994		2.11203778		0.00000000		-0.00011880		-0.00013158
O		0.00000000		0.11437979		6.14456180		0.00000000		 0.00011880		 0.00013158
O		0.00000000		5.83338020		2.11203778		0.00000000		 0.00011880		-0.00013160
O		0.00000000		5.60462008		6.14456180		0.00000000		-0.00011880		 0.00013160
O		2.77792100		5.60462008		6.24033896		0.00000000		-0.00011882		-0.00013154
O		2.77792100		5.83338020		2.01626173		0.00000000		 0.00011882		 0.00013154
O		2.77792100		0.11437979		6.24033896		0.00000000		 0.00011883		-0.00013155
O		2.77792100		11.32361994		2.01626173		0.00000000		-0.00011883		 0.00013155
O		1.45285324		1.40115502		8.19467584		-0.00009848		-0.00018915		-0.00019975
O		4.10298988		10.03684526		0.06192375		 0.00009848		 0.00018915		 0.00019975
O		4.10298988		4.31784484		8.19467584		 0.00009850		 0.00018914		-0.00019976
O		1.45285324		7.12015488		0.06192375		-0.00009850		-0.00018914		 0.00019976
O		4.10298988		7.12015488		0.06192375		 0.00009850		-0.00018914		 0.00019976
O		1.45285324		4.31784484		8.19467584		-0.00009850		 0.00018914		-0.00019976
O		1.45285324		10.03684526		0.06192375		-0.00009848		 0.00018915		 0.00019975
O		4.10298988		1.40115502		8.19467584		 0.00009848		-0.00018915		-0.00019975
O		4.23077424		7.12015488		4.06637577		-0.00009847		-0.00018914		-0.00019975
O		1.32506776		4.31784484		4.19022493		 0.00009847		 0.00018914		 0.00019975
O		1.32506776		10.03684526		4.06637577		 0.00009849		 0.00018912		-0.00019976
O		4.23077424		1.40115502		4.19022493		-0.00009849		-0.00018912		 0.00019976
O		1.32506776		1.40115502		4.19022493		 0.00009849		-0.00018912		 0.00019976
O		4.23077424		10.03684526		4.06637577		-0.00009849		 0.00018912		-0.00019976
O		4.23077424		4.31784484		4.19022493		-0.00009847		 0.00018914		 0.00019975
O		1.32506776		7.12015488		4.06637577		 0.00009847		-0.00018914		-0.00019975
