# total energy = -41273.3946793 eV

CRYSTAL
PRIMVEC
		6.12567166		0.00000000		0.00000000
		0.00000000		11.43800113		0.00000000
		0.00000000		0.00000000		8.25659681
PRIMECORD
   56 1
Mg		0.00000000		0.00000000		0.00000000		0.00000000		0.00000000		0.00000000
Mg		0.00000000		5.71899995		0.00000000		0.00000000		0.00000000		0.00000000
Mg		3.06283583		5.71899995		4.12829963		0.00000000		0.00000000		0.00000000
Mg		3.06283583		0.00000000		4.12829963		0.00000000		0.00000000		0.00000000
Mg		0.00000000		2.85949967		8.00972734		0.00000000		-0.00000001		-0.00012686
Mg		0.00000000		8.57849963		0.24687192		0.00000000		 0.00000001		 0.00012686
Mg		3.06283583		8.57849963		3.88142771		0.00000000		0.00000000		-0.00012029
Mg		3.06283583		2.85949967		4.37517277		0.00000000		-0.00000000		 0.00012029
Mg		1.53141791		1.45948905		2.06414981		-0.00002434		 0.00046725		 0.00000645
Mg		4.59425374		9.97851024		6.19244944		 0.00002434		-0.00046725		-0.00000645
Mg		4.59425374		4.25951090		2.06414981		 0.00002434		-0.00046726		 0.00000645
Mg		1.53141791		7.17848839		6.19244944		-0.00002434		 0.00046726		-0.00000645
Mg		4.59425374		7.17848839		6.19244944		 0.00002434		 0.00046726		-0.00000645
Mg		1.53141791		4.25951090		2.06414981		-0.00002434		-0.00046726		 0.00000645
Mg		1.53141791		9.97851024		6.19244944		-0.00002434		-0.00046725		-0.00000645
Mg		4.59425374		1.45948905		2.06414981		 0.00002434		 0.00046725		 0.00000645
Si		0.00000000		1.37027171		5.09267085		-0.00000000		 0.00016290		 0.00005910
Si		0.00000000		10.06772759		3.16392901		-0.00000000		-0.00016290		-0.00005910
Si		0.00000000		4.34872702		5.09267085		0.00000000		-0.00016291		 0.00005915
Si		0.00000000		7.08927166		3.16392901		0.00000000		 0.00016291		-0.00005915
Si		3.06283583		7.08927166		0.96437123		0.00000000		 0.00015804		 0.00005004
Si		3.06283583		4.34872702		7.29222864		0.00000000		-0.00015804		-0.00005004
Si		3.06283583		10.06772759		0.96437123		0.00000000		-0.00015804		 0.00005002
Si		3.06283583		1.37027171		7.29222864		0.00000000		 0.00015804		-0.00005002
O		0.00000000		2.85949967		1.78838004		-0.00000000		 0.00000001		 0.00033132
O		0.00000000		8.57849963		6.46822044		-0.00000000		-0.00000001		-0.00033132
O		3.06283583		8.57849963		5.91667967		0.00000000		-0.00000000		 0.00030627
O		3.06283583		2.85949967		2.33992081		0.00000000		0.00000000		-0.00030627
O		0.00000000		2.85949967		5.91502880		0.00000000		-0.00000002		-0.00086399
O		0.00000000		8.57849963		2.34157168		0.00000000		 0.00000002		 0.00086399
O		3.06283583		8.57849963		1.78672917		0.00000000		-0.00000000		-0.00088056
O		3.06283583		2.85949967		6.46987192		0.00000000		0.00000000		 0.00088056
O		0.00000000		11.32361953		2.11203786		-0.00000000		-0.00067068		-0.00019225
O		0.00000000		0.11437977		6.14456139		-0.00000000		 0.00067068		 0.00019225
O		0.00000000		5.83337972		2.11203786		-0.00000000		 0.00067071		-0.00019224
O		0.00000000		5.60461958		6.14456139		-0.00000000		-0.00067071		 0.00019224
O		3.06283583		5.60461958		6.24033872		0.00000000		-0.00067194		-0.00018961
O		3.06283583		5.83337972		2.01626176		0.00000000		 0.00067194		 0.00018961
O		3.06283583		0.11437977		6.24033872		-0.00000000		 0.00067192		-0.00018958
O		3.06283583		11.32361953		2.01626176		-0.00000000		-0.00067192		 0.00018958
O		1.60186314		1.40115489		8.19467545		 0.00010741		-0.00005538		-0.00038510
O		4.52380852		10.03684440		0.06192380		-0.00010741		 0.00005538		 0.00038510
O		4.52380852		4.31784506		8.19467545		-0.00010743		 0.00005539		-0.00038512
O		1.60186314		7.12015485		0.06192380		 0.00010743		-0.00005539		 0.00038512
O		4.52380852		7.12015485		0.06192380		-0.00010743		-0.00005539		 0.00038512
O		1.60186314		4.31784506		8.19467545		 0.00010743		 0.00005539		-0.00038512
O		1.60186314		10.03684440		0.06192380		 0.00010741		 0.00005538		 0.00038510
O		4.52380852		1.40115489		8.19467545		-0.00010741		-0.00005538		-0.00038510
O		4.66469958		7.12015485		4.06637583		 0.00011382		-0.00005524		-0.00039485
O		1.46097269		4.31784506		4.19022466		-0.00011382		 0.00005524		 0.00039485
O		1.46097269		10.03684440		4.06637583		-0.00011381		 0.00005522		-0.00039484
O		4.66469958		1.40115489		4.19022466		 0.00011381		-0.00005522		 0.00039484
O		1.46097269		1.40115489		4.19022466		-0.00011381		-0.00005522		 0.00039484
O		4.66469958		10.03684440		4.06637583		 0.00011381		 0.00005522		-0.00039484
O		4.66469958		4.31784506		4.19022466		 0.00011382		 0.00005524		 0.00039485
O		1.46097269		7.12015485		4.06637583		-0.00011382		-0.00005524		-0.00039485
