# total energy = -41271.6753058 eV

CRYSTAL
PRIMVEC
		6.26812986		0.00000000		0.00000000
		0.00000000		11.43800189		0.00000000
		0.00000000		0.00000000		8.25660004
PRIMECORD
   56 1
Mg		0.00000000		0.00000000		0.00000000		0.00000000		0.00000000		0.00000000
Mg		0.00000000		5.71899969		0.00000000		0.00000000		0.00000000		0.00000000
Mg		3.13406493		5.71899969		4.12830002		0.00000000		0.00000000		0.00000000
Mg		3.13406493		0.00000000		4.12830002		0.00000000		0.00000000		0.00000000
Mg		0.00000000		2.85950016		8.00972787		0.00000000		0.00000000		-0.00059229
Mg		0.00000000		8.57849985		0.24687218		0.00000000		-0.00000000		 0.00059229
Mg		3.13406493		8.57849985		3.88142785		0.00000000		-0.00000000		-0.00056642
Mg		3.13406493		2.85950016		4.37517282		0.00000000		0.00000000		 0.00056642
Mg		1.56703184		1.45948891		2.06414970		-0.00001911		-0.00017360		 0.00000343
Mg		4.70109677		9.97851047		6.19244972		 0.00001911		 0.00017360		-0.00000343
Mg		4.70109677		4.25951078		2.06414970		 0.00001910		 0.00017360		 0.00000344
Mg		1.56703184		7.17848860		6.19244972		-0.00001910		-0.00017360		-0.00000344
Mg		4.70109677		7.17848860		6.19244972		 0.00001910		-0.00017360		-0.00000344
Mg		1.56703184		4.25951078		2.06414970		-0.00001910		 0.00017360		 0.00000344
Mg		1.56703184		9.97851047		6.19244972		-0.00001911		 0.00017360		-0.00000343
Mg		4.70109677		1.45948891		2.06414970		 0.00001911		-0.00017360		 0.00000343
Si		0.00000000		1.37027211		5.09267060		-0.00000000		-0.00000316		 0.00015295
Si		0.00000000		10.06772790		3.16392881		-0.00000000		 0.00000316		-0.00015295
Si		0.00000000		4.34872696		5.09267060		-0.00000000		 0.00000314		 0.00015295
Si		0.00000000		7.08927180		3.16392881		-0.00000000		-0.00000314		-0.00015295
Si		3.13406493		7.08927180		0.96437121		0.00000000		-0.00000506		 0.00014797
Si		3.13406493		4.34872696		7.29222883		0.00000000		 0.00000506		-0.00014797
Si		3.13406493		10.06772790		0.96437121		-0.00000000		 0.00000505		 0.00014795
Si		3.13406493		1.37027211		7.29222883		-0.00000000		-0.00000505		-0.00014795
O		0.00000000		2.85950016		1.78838019		0.00000000		0.00000000		 0.00058174
O		0.00000000		8.57849985		6.46822111		0.00000000		-0.00000000		-0.00058174
O		3.13406493		8.57849985		5.91667958		0.00000000		 0.00000001		 0.00058350
O		3.13406493		2.85950016		2.33992108		0.00000000		-0.00000001		-0.00058350
O		0.00000000		2.85950016		5.91502918		0.00000000		-0.00000001		-0.00050492
O		0.00000000		8.57849985		2.34157211		0.00000000		 0.00000001		 0.00050492
O		3.13406493		8.57849985		1.78672916		0.00000000		 0.00000001		-0.00050183
O		3.13406493		2.85950016		6.46987213		0.00000000		-0.00000001		 0.00050183
O		0.00000000		11.32361980		2.11203821		0.00000000		-0.00014654		-0.00011630
O		0.00000000		0.11438021		6.14456183		0.00000000		 0.00014654		 0.00011630
O		0.00000000		5.83337990		2.11203821		0.00000000		 0.00014653		-0.00011630
O		0.00000000		5.60462011		6.14456183		0.00000000		-0.00014653		 0.00011630
O		3.13406493		5.60462011		6.24033886		0.00000000		-0.00014666		-0.00011323
O		3.13406493		5.83337990		2.01626181		0.00000000		 0.00014666		 0.00011323
O		3.13406493		0.11438021		6.24033886		-0.00000000		 0.00014667		-0.00011320
O		3.13406493		11.32361980		2.01626181		-0.00000000		-0.00014667		 0.00011320
O		1.63911596		1.40115518		8.19467593		 0.00005198		 0.00010847		 0.00013248
O		4.62901390		10.03684482		0.06192411		-0.00005198		-0.00010847		-0.00013248
O		4.62901390		4.31784513		8.19467593		-0.00005196		-0.00010846		 0.00013248
O		1.63911596		7.12015488		0.06192411		 0.00005196		 0.00010846		-0.00013248
O		4.62901390		7.12015488		0.06192411		-0.00005196		 0.00010846		-0.00013248
O		1.63911596		4.31784513		8.19467593		 0.00005196		-0.00010846		 0.00013248
O		1.63911596		10.03684482		0.06192411		 0.00005198		-0.00010847		-0.00013248
O		4.62901390		1.40115518		8.19467593		-0.00005198		 0.00010847		 0.00013248
O		4.77318089		7.12015488		4.06637591		 0.00005931		 0.00010833		 0.00012836
O		1.49494897		4.31784513		4.19022476		-0.00005931		-0.00010833		-0.00012836
O		1.49494897		10.03684482		4.06637591		-0.00005933		-0.00010834		 0.00012836
O		4.77318089		1.40115518		4.19022476		 0.00005933		 0.00010834		-0.00012836
O		1.49494897		1.40115518		4.19022476		-0.00005933		 0.00010834		-0.00012836
O		4.77318089		10.03684482		4.06637591		 0.00005933		-0.00010834		 0.00012836
O		4.77318089		4.31784513		4.19022476		 0.00005931		-0.00010833		-0.00012836
O		1.49494897		7.12015488		4.06637591		-0.00005931		 0.00010833		 0.00012836
