# total energy = -41274.6674115 eV

CRYSTAL
PRIMVEC
		5.98321504		0.00000000		0.00000000
		0.00000000		11.43799851		0.00000000
		0.00000000		0.00000000		8.25659742
PRIMECORD
   56 1
Mg		0.00000000		0.00000000		0.00000000		0.00000000		0.00000000		0.00000000
Mg		0.00000000		5.71899985		0.00000000		0.00000000		0.00000000		0.00000000
Mg		2.99160692		5.71899985		4.12829991		0.00000000		0.00000000		0.00000000
Mg		2.99160692		0.00000000		4.12829991		0.00000000		0.00000000		0.00000000
Mg		0.00000000		2.85949993		8.00972818		-0.00000000		 0.00000002		 0.00015522
Mg		0.00000000		8.57849978		0.24687224		-0.00000000		-0.00000002		-0.00015522
Mg		2.99160692		8.57849978		3.88142827		-0.00000000		-0.00000001		 0.00015522
Mg		2.99160692		2.85949993		4.37517275		-0.00000000		 0.00000001		-0.00015522
Mg		1.49580376		1.45948923		2.06414995		 0.00000002		 0.00051203		-0.00000000
Mg		4.48741128		9.97851107		6.19244986		-0.00000002		-0.00051203		0.00000000
Mg		4.48741128		4.25951122		2.06414995		-0.00000002		-0.00051201		-0.00000001
Mg		1.49580376		7.17848909		6.19244986		 0.00000002		 0.00051201		 0.00000001
Mg		4.48741128		7.17848909		6.19244986		-0.00000002		 0.00051201		 0.00000001
Mg		1.49580376		4.25951122		2.06414995		 0.00000002		-0.00051201		-0.00000001
Mg		1.49580376		9.97851107		6.19244986		 0.00000002		-0.00051203		0.00000000
Mg		4.48741128		1.45948923		2.06414995		-0.00000002		 0.00051203		-0.00000000
Si		0.00000000		1.37027172		5.09267092		0.00000000		 0.00013643		-0.00005888
Si		0.00000000		10.06772798		3.16392890		0.00000000		-0.00013643		 0.00005888
Si		0.00000000		4.34872694		5.09267092		0.00000000		-0.00013641		-0.00005887
Si		0.00000000		7.08927217		3.16392890		0.00000000		 0.00013641		 0.00005887
Si		2.99160692		7.08927217		0.96437101		0.00000000		 0.00013644		-0.00005890
Si		2.99160692		4.34872694		7.29222881		0.00000000		-0.00013644		 0.00005890
Si		2.99160692		10.06772798		0.96437101		0.00000000		-0.00013646		-0.00005889
Si		2.99160692		1.37027172		7.29222881		0.00000000		 0.00013646		 0.00005889
O		0.00000000		2.85949993		1.78837998		0.00000000		-0.00000003		-0.00030998
O		0.00000000		8.57849978		6.46822103		0.00000000		 0.00000003		 0.00030998
O		2.99160692		8.57849978		5.91667989		0.00000000		0.00000000		-0.00030995
O		2.99160692		2.85949993		2.33992112		0.00000000		-0.00000000		 0.00030995
O		0.00000000		2.85949993		5.91502912		0.00000000		0.00000000		-0.00018179
O		0.00000000		8.57849978		2.34157189		0.00000000		-0.00000000		 0.00018179
O		2.99160692		8.57849978		1.78672921		0.00000000		 0.00000001		-0.00018175
O		2.99160692		2.85949993		6.46987180		0.00000000		-0.00000001		 0.00018175
O		0.00000000		11.32361978		2.11203781		0.00000000		-0.00055824		-0.00032417
O		0.00000000		0.11437993		6.14456200		0.00000000		 0.00055824		 0.00032417
O		0.00000000		5.83337978		2.11203781		0.00000000		 0.00055824		-0.00032414
O		0.00000000		5.60461993		6.14456200		0.00000000		-0.00055824		 0.00032414
O		2.99160692		5.60461993		6.24033892		0.00000000		-0.00055819		-0.00032423
O		2.99160692		5.83337978		2.01626210		0.00000000		 0.00055819		 0.00032423
O		2.99160692		0.11437993		6.24033892		0.00000000		 0.00055821		-0.00032418
O		2.99160692		11.32361978		2.01626210		0.00000000		-0.00055821		 0.00032418
O		1.56461073		1.40115528		8.19467594		-0.00020639		-0.00016166		-0.00035460
O		4.41860431		10.03684502		0.06192388		 0.00020639		 0.00016166		 0.00035460
O		4.41860431		4.31784517		8.19467594		 0.00020641		 0.00016166		-0.00035461
O		1.56461073		7.12015513		0.06192388		-0.00020641		-0.00016166		 0.00035461
O		4.41860431		7.12015513		0.06192388		 0.00020641		-0.00016166		 0.00035461
O		1.56461073		4.31784517		8.19467594		-0.00020641		 0.00016166		-0.00035461
O		1.56461073		10.03684502		0.06192388		-0.00020639		 0.00016166		 0.00035460
O		4.41860431		1.40115528		8.19467594		 0.00020639		-0.00016166		-0.00035460
O		4.55621825		7.12015513		4.06637603		-0.00020644		-0.00016166		-0.00035460
O		1.42699679		4.31784517		4.19022499		 0.00020644		 0.00016166		 0.00035460
O		1.42699679		10.03684502		4.06637603		 0.00020645		 0.00016166		-0.00035460
O		4.55621825		1.40115528		4.19022499		-0.00020645		-0.00016166		 0.00035460
O		1.42699679		1.40115528		4.19022499		 0.00020645		-0.00016166		 0.00035460
O		4.55621825		10.03684502		4.06637603		-0.00020645		 0.00016166		-0.00035460
O		4.55621825		4.31784517		4.19022499		-0.00020644		 0.00016166		 0.00035460
O		1.42699679		7.12015513		4.06637603		 0.00020644		-0.00016166		-0.00035460
