# total energy = -24714.3409379 eV	

CRYSTAL	
PRIMVEC	
		9.61326692		-0.76905942		0.00000000	
		-0.70579490		8.82246031		0.00000000	
		-1.62743178		0.13019377		4.91196986	
PRIMCOORD
   40 1	
Mg		1.57661763		5.60157251		1.07424809		 0.00006907		-0.00003665		 0.00017448	
Mg		5.70342647		2.58202022		3.83772177		-0.00006907		 0.00003665		-0.00017448	
Mg		6.65350057		0.81242359		1.38173684		 0.00072558		 0.00033699		 0.00047418	
Mg		0.62654354		7.37116913		3.53023302		-0.00072558		-0.00033699		-0.00047418	
Mg		2.10702609		-0.06249397		1.06000296		 0.00033297		 0.00036643		 0.00074056	
Mg		5.17301898		8.24608670		3.85196690		-0.00033297		-0.00036643		-0.00074056	
Mg		6.32255089		3.98326298		1.39598197		-0.00045889		 0.00007725		-0.00066315	
Mg		0.95749417		4.20032975		3.51598789		 0.00045889		-0.00007725		 0.00066315	
Si		-0.28036602		2.99936165		1.46327575		 0.00054966		 0.00043640		 0.00006676	
Si		7.56041205		5.18423108		3.44869411		-0.00054966		-0.00043640		-0.00006676	
Si		8.24764710		6.70011861		0.99270918		 0.00013377		-0.00004180		 0.00043638	
Si		-0.96760107		1.48347411		3.91926069		-0.00013377		 0.00004180		-0.00043638	
Si		4.35484468		6.99488792		1.11108810		-0.00019620		 0.00029619		-0.00027550	
Si		2.92519942		1.18870481		3.80088176		 0.00019620		-0.00029619		 0.00027550	
Si		3.61511647		2.67106793		1.34489683		 0.00001965		-0.00019674		 0.00042708	
Si		3.66492764		5.51252479		3.56707207		-0.00001965		 0.00019674		-0.00042708	
O		7.80849290		2.36364862		0.92295907		 0.00044481		 0.00023860		 0.00002694	
O		-0.52844687		5.81994411		3.98901079		-0.00044481		-0.00023860		-0.00002694	
O		0.15695293		7.35876986		1.53302586		 0.00031530		-0.00013357		-0.00021280	
O		7.12309310		0.82482286		3.37894400		-0.00031530		 0.00013357		 0.00021280	
O		0.32721938		4.36207960		1.57576028		 0.00013826		-0.00027377		-0.00022824	
O		6.95282569		3.82151313		3.33620958		-0.00013826		 0.00027377		 0.00022824	
O		8.11859035		-0.64422771		0.88022465		 0.00021950		 0.00014946		 0.00043996	
O		-0.83854625		8.82782044		4.03174521		-0.00021950		-0.00014946		-0.00043996	
O		-0.19101451		2.47852581		3.00710770		 0.00049738		-0.00049291		 0.00023762	
O		7.47105958		5.70506595		1.90486216		-0.00049738		 0.00049291		-0.00023762	
O		6.61358701		6.31715605		4.36084709		-0.00024454		-0.00028639		 0.00066945	
O		0.66645805		1.86643668		0.55112277		 0.00024454		 0.00028639		-0.00066945	
O		2.80223189		7.12084991		0.62922264		-0.00045956		-0.00013594		 0.00015432	
O		4.47781414		1.06274282		4.28274723		 0.00045956		 0.00013594		-0.00015432	
O		5.16744765		2.54863371		1.82676230		 0.00018538		-0.00019379		-0.00042439	
O		2.11259645		5.63495902		3.08520757		-0.00018538		 0.00019379		 0.00042439	
O		4.78678035		8.17617650		1.95791082		-0.00022123		-0.00028237		-0.00052659	
O		2.49326375		0.00741622		2.95405904		 0.00022123		 0.00028237		 0.00052659	
O		2.98739250		3.93712906		0.49807411		-0.00006263		-0.00066229		 0.00016165	
O		4.29265160		4.24646271		4.41389575		 0.00006263		 0.00066229		-0.00016165	
O		4.58823293		5.72530867		2.20203571		 0.00014866		 0.00034382		-0.00003725	
O		2.69181214		2.45828406		2.70993415		-0.00014866		-0.00034382		 0.00003725	
O		3.58316402		1.42271606		0.25394922		 0.00015831		 0.00049161		-0.00003016	
O		3.69688201		6.76087667		4.65802064		-0.00015831		-0.00049161		 0.00003016	
