# total energy = -24714.3409379 eV	

CRYSTAL	
PRIMVEC	
		9.61326692		0.76905942		0.00000000	
		0.70579490		8.82246031		0.00000000	
		-1.62743178		-0.13019377		4.91196986	
PRIMCOORD
   40 1	
Mg		2.49895273		5.92761822		1.07424809		-0.00072556		 0.00033699		-0.00047416	
Mg		6.19268502		3.53370871		3.83772177		 0.00072556		-0.00033699		 0.00047416	
Mg		6.87003884		1.89430682		1.38173684		-0.00006909		-0.00003662		-0.00017450	
Mg		1.82159891		7.56702107		3.53023302		 0.00006909		 0.00003662		 0.00017450	
Mg		2.12410558		0.27599729		1.06000296		 0.00045893		 0.00007728		 0.00066311	
Mg		6.56753217		9.18533060		3.85196690		-0.00045893		-0.00007728		-0.00066311	
Mg		7.04542721		5.05270065		1.39598197		-0.00033295		 0.00036639		-0.00074053	
Mg		1.64621054		4.40862628		3.51598789		 0.00033295		-0.00036639		 0.00074053	
Si		0.19901130		2.99285293		1.46327575		-0.00013380		-0.00004177		-0.00043640	
Si		8.49262741		6.46847497		3.44869411		 0.00013380		 0.00004177		 0.00043640	
Si		9.43282028		8.11455531		0.99270918		-0.00054968		 0.00043645		-0.00006675	
Si		-0.74118156		1.34677065		3.91926069		 0.00054968		-0.00043645		 0.00006675	
Si		5.53733683		7.78626159		1.11108810		-0.00001964		-0.00019672		-0.00042706	
Si		3.15430188		1.67506534		3.80088176		 0.00001964		 0.00019672		 0.00042706	
Si		4.09181179		3.28762223		1.34489683		 0.00019621		 0.00029623		 0.00027555	
Si		4.59982692		6.17370470		3.56707207		-0.00019621		-0.00029623		-0.00027555	
O		8.28970451		3.65150514		0.92295907		-0.00031528		-0.00013355		 0.00021281	
O		0.40193421		5.80982275		3.98901079		 0.00031528		 0.00013355		-0.00021281	
O		1.34396233		7.47884227		1.53302586		-0.00044481		 0.00023857		-0.00002697	
O		7.34767639		1.98248369		3.37894400		 0.00044481		-0.00023857		 0.00002697	
O		1.03386295		4.47096691		1.57576028		-0.00021949		 0.00014943		-0.00043996	
O		7.65777577		4.99036098		3.33620958		 0.00021949		-0.00014943		 0.00043996	
O		8.11943806		0.65481391		0.88022465		-0.00013822		-0.00027383		 0.00022820	
O		0.57220066		8.80651302		4.03174521		 0.00013822		 0.00027383		-0.00022820	
O		0.20564347		2.47969563		3.00710770		 0.00024454		-0.00028638		-0.00066943	
O		8.48599524		6.98163034		1.90486216		-0.00024454		 0.00028638		 0.00066943	
O		7.71604182		7.46352667		4.36084709		-0.00049735		-0.00049289		-0.00023764	
O		0.97559689		1.99780123		0.55112277		 0.00049735		 0.00049289		 0.00023764	
O		3.98500565		7.66382833		0.62922264		-0.00018540		-0.00019378		 0.00042441	
O		4.70663307		1.79749859		4.28274723		 0.00018540		 0.00019378		-0.00042441	
O		5.64442555		3.41358422		1.82676230		 0.00045955		-0.00013598		-0.00015432	
O		3.04721317		6.04774271		3.08520757		-0.00045955		 0.00013598		 0.00015432	
O		6.16506079		9.05232368		1.95791082		 0.00006263		-0.00066233		-0.00016166	
O		2.52657792		0.40900421		2.95405904		-0.00006263		 0.00066233		 0.00016166	
O		3.65987612		4.46891082		0.49807411		 0.00022121		-0.00028240		 0.00052661	
O		5.03176260		4.99241708		4.41389575		-0.00022121		 0.00028240		-0.00052661	
O		5.56929121		6.53791068		2.20203571		-0.00015833		 0.00049163		 0.00003013	
O		3.12234751		2.92341721		2.70993415		 0.00015833		-0.00049163		-0.00003013	
O		3.85842451		2.01804298		0.25394922		-0.00014865		 0.00034381		 0.00003721	
O		4.83321420		7.44328394		4.65802064		 0.00014865		-0.00034381		-0.00003721	
