# total energy = -24716.2371267 eV	

CRYSTAL	
PRIMVEC	
		9.61327030		-0.38453043		0.00000000	
		-0.35289672		8.82245646		0.00000000	
		-1.62742344		0.06509540		4.91197020	
PRIMCOORD
   40 1	
Mg		1.80720161		5.68308417		1.07424821		-0.00026428		 0.00038449		 0.00069185	
Mg		5.82574180		2.81994207		3.83772199		 0.00026428		-0.00038449		-0.00069185	
Mg		6.70763532		1.08289456		1.38173689		-0.00011210		 0.00020471		-0.00020535	
Mg		0.92530809		7.42013168		3.53023331		 0.00011210		-0.00020471		 0.00020535	
Mg		2.11129602		0.02212916		1.06000342		 0.00032890		 0.00032899		 0.00021432	
Mg		5.52164739		8.48089804		3.85196678		-0.00032890		-0.00032899		-0.00021432	
Mg		6.50326983		4.25062174		1.39598168		 0.00007552		 0.00011982		-0.00006589	
Mg		1.12967262		4.25240354		3.51598756		-0.00007552		-0.00011982		 0.00006589	
Si		-0.16052183		2.99773544		1.46327643		 0.00041989		 0.00075182		 0.00007274	
Si		7.79346620		5.50529176		3.44869377		-0.00041989		-0.00075182		-0.00007274	
Si		8.54394032		7.05372810		0.99270867		 0.00015707		-0.00003505		 0.00019589	
Si		-0.91099595		1.44929814		3.91926057		-0.00015707		 0.00003505		-0.00019589	
Si		4.65046777		7.19273073		1.11108782		 0.00012257		 0.00004984		 0.00039480	
Si		2.98247468		1.31029455		3.80088239		-0.00012257		-0.00004984		-0.00039480	
Si		3.73429093		2.82520570		1.34489729		-0.00008183		 0.00024604		-0.00009792	
Si		3.89865248		5.67781958		3.56707195		 0.00008183		-0.00024604		 0.00009792	
O		7.92879555		2.68561330		0.92295865		-0.00020073		-0.00058605		-0.00031622	
O		-0.29585214		5.81741390		3.98901059		 0.00020073		 0.00058605		 0.00031622	
O		0.45370511		7.38878852		1.53302645		 0.00003075		 0.00015544		 0.00047526	
O		7.17923926		1.11423772		3.37894375		-0.00003075		-0.00015544		-0.00047526	
O		0.50388033		4.38930207		1.57575986		-0.00048581		 0.00038858		-0.00019741	
O		7.12906308		4.11372514		3.33621035		 0.00048581		-0.00038858		 0.00019741	
O		8.11880272		-0.31946678		0.88022524		-0.00013954		 0.00014674		 0.00016992	
O		-0.48585931		8.82249398		4.03174496		 0.00013954		-0.00014674		-0.00016992	
O		-0.09185032		2.47881852		3.00710818		 0.00035929		 0.00032078		 0.00024141	
O		7.72479373		6.02420772		1.90486202		-0.00035929		-0.00032078		-0.00024141	
O		6.88920107		6.60374918		4.36084712		-0.00008175		 0.00000656		-0.00000159	
O		0.74374330		1.89927802		0.55112308		 0.00008175		-0.00000656		 0.00000159	
O		3.09792521		7.25659368		0.62922312		-0.00025015		-0.00008722		 0.00076009	
O		4.53501820		1.24643160		4.28274708		 0.00025015		 0.00008722		-0.00076009	
O		5.28669303		2.76487171		1.82676198		 0.00013167		-0.00007073		-0.00054334	
O		2.34625135		5.73815453		3.08520823		-0.00013167		 0.00007073		 0.00054334	
O		5.13135112		8.39521283		1.95791102		-0.00025381		-0.00047922		 0.00049657	
O		2.50159229		0.10781341		2.95405918		 0.00025381		 0.00047922		-0.00049657	
O		3.15551433		4.07007485		0.49807408		-0.00015654		-0.00013354		-0.00040893	
O		4.47743004		4.43295235		4.41389612		 0.00015654		 0.00013354		 0.00040893	
O		4.83349686		5.92845899		2.20203608		 0.00003066		-0.00007060		 0.00035780	
O		2.79944558		2.57456725		2.70993412		-0.00003066		 0.00007060		-0.00035780	
O		3.65197883		1.57154780		0.25394902		 0.00042400		 0.00042040		-0.00014537	
O		3.98096458		6.93147940		4.65802118		-0.00042400		-0.00042040		 0.00014537	
