# total energy = -22469.0628105 eV	

CRYSTAL	
PRIMVEC	
		9.73970004		0.00000000		0.00000000	
		0.00000000		8.47153266		0.00000000	
		-1.43536881		0.00000000		5.05028771	
PRIMCOORD
   40 1	
Mg		-0.35884269		7.69282708		1.26257095		 0.00000001		-0.00032406		-0.00000002	
Mg		-1.07652807		0.77870265		3.78771188		-0.00000001		 0.00032406		 0.00000002	
Mg		4.51100733		3.45706173		1.26257095		-0.00000003		-0.00030989		 0.00000006	
Mg		3.79332195		5.01446801		3.78771188		 0.00000003		 0.00030989		-0.00000006	
Ca		-0.35884269		2.55399674		1.26257095		 0.00000003		 0.00019674		 0.00000012	
Ca		-1.07652807		5.91753300		3.78771188		-0.00000003		-0.00019674		-0.00000012	
Ca		4.51100733		6.78976210		1.26257095		 0.00000001		 0.00017370		 0.00000002	
Ca		3.79332195		1.68176764		3.78771188		-0.00000001		-0.00017370		-0.00000002	
Si		2.45818828		0.78946210		1.15833279		 0.00016951		 0.00004314		-0.00004625	
Si		5.84614100		7.68206764		3.89195005		-0.00016951		-0.00004314		 0.00004625	
Si		6.56382638		0.78946210		1.36680912		-0.00016986		 0.00004318		 0.00004612	
Si		1.74050290		7.68206764		3.68347372		 0.00016986		-0.00004318		-0.00004612	
Si		7.32803928		5.02522746		1.15833279		-0.00015171		-0.00013661		-0.00018412	
Si		0.97629098		3.44630326		3.89195005		 0.00015171		 0.00013661		 0.00018412	
Si		1.69397636		5.02522746		1.36680912		 0.00015390		-0.00013829		 0.00018538	
Si		6.61035293		3.44630326		3.68347372		-0.00015390		 0.00013829		-0.00018538	
O		0.92170288		0.73617620		0.71643286		-0.00012627		-0.00019926		 0.00053766	
O		7.38262640		7.73535451		4.33384998		 0.00012627		 0.00019926		-0.00053766	
O		8.10031081		0.73617620		1.80870807		 0.00012647		-0.00019920		-0.00053761	
O		0.20401847		7.73535451		3.24157476		-0.00012647		 0.00019920		 0.00053761	
O		5.79155387		4.97194058		0.71643286		 0.00008311		-0.00017681		 0.00060352	
O		2.51277638		3.49958915		4.33384998		-0.00008311		 0.00017681		-0.00060352	
O		3.23046079		4.97194058		1.80870807		-0.00008459		-0.00017670		-0.00060404	
O		5.07386849		3.49958915		3.24157476		 0.00008459		 0.00017670		 0.00060404	
O		3.05934400		2.11949216		1.60477824		-0.00002301		 0.00015595		-0.00021327	
O		5.24498528		6.35203758		3.44550460		 0.00002301		-0.00015595		 0.00021327	
O		5.96267066		2.11949216		0.92036367		 0.00002305		 0.00015582		 0.00021327	
O		2.34165764		6.35203758		4.12991917		-0.00002305		-0.00015582		-0.00021327	
O		7.92919402		6.35525849		1.60477824		 0.00009154		 0.00034145		-0.00015227	
O		0.37513526		2.11627319		3.44550460		-0.00009154		-0.00034145		 0.00015227	
O		1.09282064		6.35525849		0.92036367		-0.00009227		 0.00034305		 0.00015173	
O		7.21150767		2.11627319		4.12991917		 0.00009227		-0.00034305		-0.00015173	
O		1.98719392		0.14774346		5.02720267		-0.00021359		 0.00029962		-0.00040234	
O		6.31713633		8.32378725		0.02308017		 0.00021359		-0.00029962		 0.00040234	
O		5.59944998		0.14774346		2.54822110		 0.00021361		 0.00029968		 0.00040232	
O		2.70487930		8.32378725		2.50206174		-0.00021361		-0.00029968		-0.00040232	
O		6.85704394		4.38350881		5.02720267		-0.00016396		 0.00030598		-0.00038457	
O		1.44728534		4.08802190		0.02308017		 0.00016396		-0.00030598		 0.00038457	
O		0.72959996		4.38350881		2.54822110		 0.00016407		 0.00030603		 0.00038463	
O		7.57472933		4.08802190		2.50206174		-0.00016407		-0.00030603		-0.00038463	
