# total energy = -22469.9693284 eV	

CRYSTAL	
PRIMVEC	
		9.73970004		0.00000000		0.00000000	
		0.00000000		9.14033838		0.00000000	
		-1.43536881		0.00000000		5.05028771	
PRIMCOORD
   40 1	
Mg		-0.35884269		8.30015582		1.26257095		-0.00000003		 0.00032221		 0.00000005	
Mg		-1.07652807		0.84017964		3.78771188		 0.00000003		-0.00032221		-0.00000005	
Mg		4.51100733		3.72998760		1.26257095		-0.00000002		 0.00032101		 0.00000005	
Mg		3.79332195		5.41034688		3.78771188		 0.00000002		-0.00032101		-0.00000005	
Ca		-0.35884269		2.75562801		1.26257095		-0.00000001		 0.00013060		 0.00000007	
Ca		-1.07652807		6.38470745		3.78771188		 0.00000001		-0.00013060		-0.00000007	
Ca		4.51100733		7.32579623		1.26257095		-0.00000003		 0.00013245		 0.00000007	
Ca		3.79332195		1.81453923		3.78771188		 0.00000003		-0.00013245		-0.00000007	
Si		2.45818828		0.85178839		1.15833279		-0.00062337		 0.00007404		 0.00027281	
Si		5.84614100		8.28854707		3.89195005		 0.00062337		-0.00007404		-0.00027281	
Si		6.56382638		0.85178839		1.36680912		 0.00062354		 0.00007370		-0.00027270	
Si		1.74050290		8.28854707		3.68347372		-0.00062354		-0.00007370		 0.00027270	
Si		7.32803928		5.42195563		1.15833279		-0.00060252		 0.00008567		 0.00028110	
Si		0.97629098		3.71837983		3.89195005		 0.00060252		-0.00008567		-0.00028110	
Si		1.69397636		5.42195563		1.36680912		 0.00060312		 0.00008509		-0.00028078	
Si		6.61035293		3.71837983		3.68347372		-0.00060312		-0.00008509		 0.00028078	
O		0.92170288		0.79429494		0.71643286		 0.00061780		-0.00054823		 0.00001287	
O		7.38262640		8.34604052		4.33384998		-0.00061780		 0.00054823		-0.00001287	
O		8.10031081		0.79429494		1.80870807		-0.00061776		-0.00054816		-0.00001296	
O		0.20401847		8.34604052		3.24157476		 0.00061776		 0.00054816		 0.00001296	
O		5.79155387		5.36446316		0.71643286		 0.00060358		-0.00054914		 0.00000823	
O		2.51277638		3.77587328		4.33384998		-0.00060358		 0.00054914		-0.00000823	
O		3.23046079		5.36446316		1.80870807		-0.00060392		-0.00054907		-0.00000845	
O		5.07386849		3.77587328		3.24157476		 0.00060392		 0.00054907		 0.00000845	
O		3.05934400		2.28682021		1.60477824		 0.00029401		 0.00078159		 0.00019950	
O		5.24498528		6.85351525		3.44550460		-0.00029401		-0.00078159		-0.00019950	
O		5.96267066		2.28682021		0.92036367		-0.00029411		 0.00078193		-0.00019958	
O		2.34165764		6.85351525		4.12991917		 0.00029411		-0.00078193		 0.00019958	
O		7.92919402		6.85698843		1.60477824		 0.00028690		 0.00076963		 0.00019600	
O		0.37513526		2.28334703		3.44550460		-0.00028690		-0.00076963		-0.00019600	
O		1.09282064		6.85698843		0.92036367		-0.00028704		 0.00077008		-0.00019615	
O		7.21150767		2.28334703		4.12991917		 0.00028704		-0.00077008		 0.00019615	
O		1.98719392		0.15940675		5.02720267		 0.00056048		 0.00035559		 0.00030566	
O		6.31713633		8.98092774		0.02308017		-0.00056048		-0.00035559		-0.00030566	
O		5.59944998		0.15940675		2.54822110		-0.00056045		 0.00035555		-0.00030573	
O		2.70487930		8.98092774		2.50206174		 0.00056045		-0.00035555		 0.00030573	
O		6.85704394		4.72957497		5.02720267		 0.00055764		 0.00035483		 0.00030418	
O		1.44728534		4.41076050		0.02308017		-0.00055764		-0.00035483		-0.00030418	
O		0.72959996		4.72957497		2.54822110		-0.00055758		 0.00035486		-0.00030431	
O		7.57472933		4.41076050		2.50206174		 0.00055758		-0.00035486		 0.00030431	
