# total energy = -22466.5703975 eV	

CRYSTAL	
PRIMVEC	
		9.73970004		0.00000000		0.00000000	
		0.00000000		8.02565893		0.00000000	
		-1.43536881		0.00000000		5.05028771	
PRIMCOORD
   40 1	
Mg		-0.35884269		7.28794094		1.26257095		 0.00000019		 0.00002463		-0.00000055	
Mg		-1.07652807		0.73771897		3.78771188		-0.00000019		-0.00002463		 0.00000055	
Mg		4.51100733		3.27511147		1.26257095		-0.00000010		-0.00004099		-0.00000024	
Mg		3.79332195		4.75054941		3.78771188		 0.00000010		 0.00004099		 0.00000024	
Ca		-0.35884269		2.41957622		1.26257095		-0.00000036		-0.00040310		-0.00000117	
Ca		-1.07652807		5.60608369		3.78771188		 0.00000036		 0.00040310		 0.00000117	
Ca		4.51100733		6.43240568		1.26257095		-0.00000054		-0.00032440		-0.00000151	
Ca		3.79332195		1.59325422		3.78771188		 0.00000054		 0.00032440		 0.00000151	
Si		2.45818828		0.74791059		1.15833279		-0.00076222		-0.00057024		-0.00047793	
Si		5.84614100		7.27774931		3.89195005		 0.00076222		 0.00057024		 0.00047793	
Si		6.56382638		0.74791059		1.36680912		 0.00073984		-0.00055243		 0.00046362	
Si		1.74050290		7.27774931		3.68347372		-0.00073984		 0.00055243		-0.00046362	
Si		7.32803928		4.76074201		1.15833279		 0.00061101		 0.00010951		 0.00013431	
Si		0.97629098		3.26491887		3.89195005		-0.00061101		-0.00010951		-0.00013431	
Si		1.69397636		4.76074201		1.36680912		-0.00062468		 0.00012189		-0.00014366	
Si		6.61035293		3.26491887		3.68347372		 0.00062468		-0.00012189		 0.00014366	
O		0.92170288		0.69742973		0.71643286		 0.00008795		 0.00058758		 0.00031992	
O		7.38262640		7.32823018		4.33384998		-0.00008795		-0.00058758		-0.00031992	
O		8.10031081		0.69742973		1.80870807		-0.00007285		 0.00058599		-0.00031406	
O		0.20401847		7.32823018		3.24157476		 0.00007285		-0.00058599		 0.00031406	
O		5.79155387		4.71026017		0.71643286		-0.00077652		 0.00050052		 0.00002885	
O		2.51277638		3.31539974		4.33384998		 0.00077652		-0.00050052		-0.00002885	
O		3.23046079		4.71026017		1.80870807		 0.00078605		 0.00049882		-0.00002499	
O		5.07386849		3.31539974		3.24157476		-0.00078605		-0.00049882		 0.00002499	
O		3.05934400		2.00794046		1.60477824		 0.00003623		 0.00005725		 0.00018040	
O		5.24498528		6.01772042		3.44550460		-0.00003623		-0.00005725		-0.00018040	
O		5.96267066		2.00794046		0.92036367		-0.00002814		 0.00003915		-0.00017375	
O		2.34165764		6.01772042		4.12991917		 0.00002814		-0.00003915		 0.00017375	
O		7.92919402		6.02076992		1.60477824		-0.00043022		-0.00067177		-0.00008201	
O		0.37513526		2.00488998		3.44550460		 0.00043022		 0.00067177		 0.00008201	
O		1.09282064		6.02076992		0.92036367		 0.00043536		-0.00068359		 0.00008652	
O		7.21150767		2.00488998		4.12991917		-0.00043536		 0.00068359		-0.00008652	
O		1.98719392		0.13996826		5.02720267		 0.00003933		-0.00014210		 0.00009940	
O		6.31713633		7.88569263		0.02308017		-0.00003933		 0.00014210		-0.00009940	
O		5.59944998		0.13996826		2.54822110		-0.00003992		-0.00014257		-0.00009974	
O		2.70487930		7.88569263		2.50206174		 0.00003992		 0.00014257		 0.00009974	
O		6.85704394		4.15279772		5.02720267		-0.00016026		-0.00017680		 0.00002370	
O		1.44728534		3.87286316		0.02308017		 0.00016026		 0.00017680		-0.00002370	
O		0.72959996		4.15279772		2.54822110		 0.00015971		-0.00017771		-0.00002364	
O		7.57472933		3.87286316		2.50206174		-0.00015971		 0.00017771		 0.00002364	
