# total energy = -22468.4673586 eV	

CRYSTAL	
PRIMVEC	
		9.73970004		0.00000000		0.00000000	
		0.00000000		9.80914411		0.00000000	
		-1.43536881		0.00000000		5.05028771	
PRIMCOORD
   40 1	
Mg		-0.35884269		8.90748358		1.26257095		 0.00000001		 0.00010991		-0.00000001	
Mg		-1.07652807		0.90165565		3.78771188		-0.00000001		-0.00010991		 0.00000001	
Mg		4.51100733		4.00291445		1.26257095		 0.00000001		 0.00010751		-0.00000000	
Mg		3.79332195		5.80622673		3.78771188		-0.00000001		-0.00010751		0.00000000	
Ca		-0.35884269		2.95726025		1.26257095		0.00000000		-0.00029064		-0.00000001	
Ca		-1.07652807		6.85188093		3.78771188		-0.00000000		 0.00029064		 0.00000001	
Ca		4.51100733		7.86183036		1.26257095		 0.00000001		-0.00028645		0.00000000	
Ca		3.79332195		1.94731082		3.78771188		-0.00000001		 0.00028645		-0.00000000	
Si		2.45818828		0.91411370		1.15833279		-0.00011629		 0.00026571		-0.00012416	
Si		5.84614100		8.89502651		3.89195005		 0.00011629		-0.00026571		 0.00012416	
Si		6.56382638		0.91411370		1.36680912		 0.00011613		 0.00026587		 0.00012407	
Si		1.74050290		8.89502651		3.68347372		-0.00011613		-0.00026587		-0.00012407	
Si		7.32803928		5.81868381		1.15833279		-0.00007496		 0.00029039		-0.00010734	
Si		0.97629098		3.99045640		3.89195005		 0.00007496		-0.00029039		 0.00010734	
Si		1.69397636		5.81868381		1.36680912		 0.00007471		 0.00029060		 0.00010719	
Si		6.61035293		3.99045640		3.68347372		-0.00007471		-0.00029060		-0.00010719	
O		0.92170288		0.85241368		0.71643286		-0.00044168		-0.00006614		-0.00044770	
O		7.38262640		8.95672556		4.33384998		 0.00044168		 0.00006614		 0.00044770	
O		8.10031081		0.85241368		1.80870807		 0.00044180		-0.00006612		 0.00044774	
O		0.20401847		8.95672556		3.24157476		-0.00044180		 0.00006612		-0.00044774	
O		5.79155387		5.75698378		0.71643286		-0.00046795		-0.00006916		-0.00045612	
O		2.51277638		4.05215643		4.33384998		 0.00046795		 0.00006916		 0.00045612	
O		3.23046079		5.75698378		1.80870807		 0.00046807		-0.00006918		 0.00045620	
O		5.07386849		4.05215643		3.24157476		-0.00046807		 0.00006918		-0.00045620	
O		3.05934400		2.45414923		1.60477824		 0.00009421		 0.00011871		 0.00023942	
O		5.24498528		7.35499098		3.44550460		-0.00009421		-0.00011871		-0.00023942	
O		5.96267066		2.45414923		0.92036367		-0.00009417		 0.00011855		-0.00023939	
O		2.34165764		7.35499098		4.12991917		 0.00009417		-0.00011855		 0.00023939	
O		7.92919402		7.35871934		1.60477824		 0.00007999		 0.00009526		 0.00023247	
O		0.37513526		2.45042087		3.44550460		-0.00007999		-0.00009526		-0.00023247	
O		1.09282064		7.35871934		0.92036367		-0.00007995		 0.00009509		-0.00023246	
O		7.21150767		2.45042087		4.12991917		 0.00007995		-0.00009509		 0.00023246	
O		1.98719392		0.17107101		5.02720267		 0.00044276		-0.00028775		 0.00027607	
O		6.31713633		9.63806920		0.02308017		-0.00044276		 0.00028775		-0.00027607	
O		5.59944998		0.17107101		2.54822110		-0.00044276		-0.00028777		-0.00027607	
O		2.70487930		9.63806920		2.50206174		 0.00044276		 0.00028777		 0.00027607	
O		6.85704394		5.07564209		5.02720267		 0.00043713		-0.00028834		 0.00027370	
O		1.44728534		4.73349909		0.02308017		-0.00043713		 0.00028834		-0.00027370	
O		0.72959996		5.07564209		2.54822110		-0.00043714		-0.00028839		-0.00027363	
O		7.57472933		4.73349909		2.50206174		 0.00043714		 0.00028839		 0.00027363	
