# total energy = -2552.86084853 eV	

CRYSTAL	
PRIMVEC	
		3.14199968		0.00000000		0.00000000	
		-1.57099984		2.72105027		0.00000000	
		0.00000000		0.00000000		4.76599877	
PRIMCOORD
   5 1	
Mg		0.00000000		0.00000000		0.00000000		0.00000000		-0.00000000		0.00000000	
O		0.00000000		1.81403477		1.05614580		0.00000000		0.00000000		 0.00002014	
O		1.57099984		0.90701676		3.70985360		0.00000000		-0.00000000		-0.00002014	
H		0.00000000		1.81403477		2.05080990		0.00000000		-0.00000000		-0.00005191	
H		1.57099984		0.90701676		2.71518981		0.00000000		0.00000000		 0.00005191	
