# total energy = -8278.87610828 eV	

CRYSTAL	
PRIMVEC	
		4.63209970		0.00000000		0.00000000	
		0.00000000		4.21100015		0.00000000	
		0.00000000		0.00000000		4.21100015	
PRIMCOORD
   8 1	
Mg		0.00000000		0.00000000		0.00000000		0.00000000		0.00000000		0.00000000	
Mg		0.00000000		2.10550008		2.10550008		0.00000000		0.00000000		0.00000000	
Mg		2.31604985		0.00000000		2.10550008		0.00000000		0.00000000		0.00000000	
Mg		2.31604985		2.10550008		0.00000000		0.00000000		0.00000000		0.00000000	
O		2.31604985		2.10550008		2.10550008		0.00000000		0.00000000		0.00000000	
O		2.31604985		0.00000000		0.00000000		0.00000000		0.00000000		0.00000000	
O		0.00000000		2.10550008		0.00000000		0.00000000		0.00000000		0.00000000	
O		0.00000000		0.00000000		2.10550008		0.00000000		0.00000000		0.00000000	
