# total energy = -8279.26731404 eV	

CRYSTAL	
PRIMVEC	
		4.31627511		0.00000000		0.00000000	
		0.00000000		4.21100116		0.00000000	
		0.00000000		0.00000000		4.21100116	
PRIMCOORD
   8 1	
Mg		0.00000000		0.00000000		0.00000000		0.00000000		0.00000000		0.00000000	
Mg		0.00000000		2.10550015		2.10550015		0.00000000		0.00000000		0.00000000	
Mg		2.15813712		0.00000000		2.10550015		0.00000000		0.00000000		0.00000000	
Mg		2.15813712		2.10550015		0.00000000		0.00000000		0.00000000		0.00000000	
O		2.15813712		2.10550015		2.10550015		0.00000000		0.00000000		0.00000000	
O		2.15813712		0.00000000		0.00000000		0.00000000		0.00000000		0.00000000	
O		0.00000000		2.10550015		0.00000000		0.00000000		0.00000000		0.00000000	
O		0.00000000		0.00000000		2.10550015		0.00000000		0.00000000		0.00000000	
