# total energy = -8279.22989087 eV	

CRYSTAL	
PRIMVEC	
		4.10572502		0.00000000		0.00000000	
		0.00000000		4.21099992		0.00000000	
		0.00000000		0.00000000		4.21099992	
PRIMCOORD
   8 1	
Mg		0.00000000		0.00000000		0.00000000		0.00000000		0.00000000		0.00000000	
Mg		0.00000000		2.10549996		2.10549996		0.00000000		0.00000000		0.00000000	
Mg		2.05286210		0.00000000		2.10549996		0.00000000		0.00000000		0.00000000	
Mg		2.05286210		2.10549996		0.00000000		0.00000000		0.00000000		0.00000000	
O		2.05286210		2.10549996		2.10549996		0.00000000		0.00000000		0.00000000	
O		2.05286210		0.00000000		0.00000000		0.00000000		0.00000000		0.00000000	
O		0.00000000		2.10549996		0.00000000		0.00000000		0.00000000		0.00000000	
O		0.00000000		0.00000000		2.10549996		0.00000000		0.00000000		0.00000000	
