# total energy = -8278.69957441 eV	

CRYSTAL	
PRIMVEC	
		3.89517494		0.00000000		0.00000000	
		0.00000000		4.21099962		0.00000000	
		0.00000000		0.00000000		4.21099962	
PRIMCOORD
   8 1	
Mg		0.00000000		0.00000000		0.00000000		0.00000000		0.00000000		0.00000000	
Mg		0.00000000		2.10549981		2.10549981		0.00000000		0.00000000		0.00000000	
Mg		1.94758708		0.00000000		2.10549981		0.00000000		0.00000000		0.00000000	
Mg		1.94758708		2.10549981		0.00000000		0.00000000		0.00000000		0.00000000	
O		1.94758708		2.10549981		2.10549981		0.00000000		0.00000000		0.00000000	
O		1.94758708		0.00000000		0.00000000		0.00000000		0.00000000		0.00000000	
O		0.00000000		2.10549981		0.00000000		0.00000000		0.00000000		0.00000000	
O		0.00000000		0.00000000		2.10549981		0.00000000		0.00000000		0.00000000	
