# total energy = -8279.0455393 eV	

CRYSTAL	
PRIMVEC	
		4.00044998		0.00000000		0.00000000	
		0.00000000		4.21100167		0.00000000	
		0.00000000		0.00000000		4.21100167	
PRIMCOORD
   8 1	
Mg		0.00000000		0.00000000		0.00000000		0.00000000		0.00000000		0.00000000	
Mg		0.00000000		2.10550003		2.10550003		0.00000000		0.00000000		0.00000000	
Mg		2.00022499		0.00000000		2.10550003		0.00000000		0.00000000		0.00000000	
Mg		2.00022499		2.10550003		0.00000000		0.00000000		0.00000000		0.00000000	
O		2.00022499		2.10550003		2.10550003		0.00000000		0.00000000		0.00000000	
O		2.00022499		0.00000000		0.00000000		0.00000000		0.00000000		0.00000000	
O		0.00000000		2.10550003		0.00000000		0.00000000		0.00000000		0.00000000	
O		0.00000000		0.00000000		2.10550003		0.00000000		0.00000000		0.00000000	
