# total energy = -24713.0426321 eV

CRYSTAL
PRIMVEC
		9.53870002		0.00000000		0.00000000
		0.00000000		8.66009990		0.00000000
		-1.68714803		0.00000000		4.61037804
PRIMECORD
   40 1
Mg		-0.42178796		7.83046288		1.15259356		-0.00000052		 0.00049982		 0.00000015
Mg		-1.26536388		0.82963702		3.45778257		 0.00000052		-0.00049982		-0.00000015
Mg		4.34756205		3.50041293		1.15259356		-0.00000046		 0.00045005		 0.00000009
Mg		3.50398613		5.15968697		3.45778257		 0.00000046		-0.00045005		-0.00000009
Mg		-0.42178796		2.47332482		1.15259356		 0.00000055		 0.00026307		 0.00000066
Mg		-1.26536388		6.18677508		3.45778257		-0.00000055		-0.00026307		-0.00000066
Mg		4.34756205		6.80337477		1.15259356		 0.00000054		 0.00037886		 0.00000062
Mg		3.50398613		1.85672513		3.45778257		-0.00000054		-0.00037886		-0.00000062
Si		2.37296148		0.79655585		1.13277023		-0.00018005		-0.00021721		-0.00017324
Si		5.47858670		7.86354405		3.47760685		 0.00018005		 0.00021721		 0.00017324
Si		6.32216262		0.79655585		1.17241879		 0.00019599		-0.00024383		 0.00018447
Si		1.52938461		7.86354405		3.43795829		-0.00019599		 0.00024383		-0.00018447
Si		7.14231149		5.12660581		1.13277023		-0.00045136		 0.00045244		 0.00000457
Si		0.70923669		3.53349410		3.47760685		 0.00045136		-0.00045244		-0.00000457
Si		1.55281261		5.12660581		1.17241879		 0.00046548		 0.00042781		 0.00000547
Si		6.29873462		3.53349410		3.43795829		-0.00046548		-0.00042781		-0.00000547
O		0.84504584		0.71705556		0.63623225		 0.00003403		-0.00025988		 0.00048611
O		7.00650234		7.94304339		3.97414484		-0.00003403		 0.00025988		-0.00048611
O		7.85007827		0.71705556		1.66895582		-0.00004523		-0.00025840		-0.00048995
O		0.00146991		7.94304339		2.94142126		 0.00004523		 0.00025840		 0.00048995
O		5.61439585		5.04710742		0.63623225		 0.00032666		-0.00030797		 0.00058240
O		2.23715233		3.61299439		3.97414484		-0.00032666		 0.00030797		-0.00058240
O		3.08072825		5.04710742		1.66895582		-0.00033682		-0.00030654		-0.00058594
O		4.77081993		3.61299439		2.94142126		 0.00033682		 0.00030654		 0.00058594
O		2.93192644		2.23170764		1.46563938		-0.00009494		 0.00004282		 0.00017695
O		4.91962174		6.42839321		3.14473770		 0.00009494		-0.00004282		-0.00017695
O		5.76319766		2.23170764		0.83954964		 0.00008728		 0.00006399		-0.00018707
O		2.08834861		6.42839321		3.77082745		-0.00008728		-0.00006399		 0.00018707
O		7.70127645		6.56175664		1.46563938		-0.00025884		-0.00047349		-0.00003736
O		0.15027173		2.09834231		3.14473770		 0.00025884		 0.00047349		 0.00003736
O		0.99384765		6.56175664		0.83954964		 0.00025185		-0.00045435		 0.00002824
O		6.85769958		2.09834231		3.77082745		-0.00025185		 0.00045435		-0.00002824
O		3.33603347		0.05629073		0.11894759		-0.00000392		 0.00013644		 0.00014162
O		4.51551471		8.60380917		4.49142854		 0.00000392		-0.00013644		-0.00014162
O		5.35909063		0.05629073		2.18624143		 0.00000502		 0.00014154		-0.00014543
O		2.49245659		8.60380917		2.42413565		-0.00000502		-0.00014154		 0.00014543
O		8.10538348		4.38634068		0.11894759		 0.00012870		 0.00017652		 0.00011700
O		-0.25383530		4.27375922		4.49142854		-0.00012870		-0.00017652		-0.00011700
O		0.58974062		4.38634068		2.18624143		-0.00012760		 0.00018129		-0.00012065
O		7.26180660		4.27375922		2.42413565		 0.00012760		-0.00018129		 0.00012065
