# total energy = -7175.18424355 eV	

CRYSTAL	
PRIMVEC	
		3.11200009		0.00000000		0.00000000	
		-1.55600005		2.69506988		0.00000000	
		0.00000000		0.00000000		13.08719897	
PRIMCOORD
   12 1	
O		0.00000000		1.79671419		5.41024826		0.00000000		0.00000000		 0.00043230	
O		1.55600005		0.89835694		7.67695133		0.00000000		-0.00000000		-0.00043230	
O		0.00000000		1.79671419		10.67653820		0.00000000		-0.00000000		-0.00006834	
O		1.55600005		0.89835694		2.41066201		0.00000000		0.00000000		 0.00006834	
O		0.00000000		0.00000000		0.00000000		0.00000000		0.00000000		0.00000000	
H		0.00000000		1.79671419		4.39599017		0.00000000		-0.00000000		 0.00018461	
H		1.55600005		0.89835694		8.69120911		0.00000000		0.00000000		-0.00018461	
H		0.00000000		1.79671419		9.66097121		0.00000000		0.00000000		 0.00056777	
H		1.55600005		0.89835694		3.42622901		0.00000000		0.00000000		-0.00056777	
Mg		0.00000000		0.00000000		6.54360011		-0.00000000		0.00000000		0.00000000	
Mg		1.55600005		0.89835694		11.82166741		0.00000000		-0.00000000		-0.00090801	
Mg		0.00000000		1.79671419		1.26553218		0.00000000		0.00000000		 0.00090801	
