# total energy = -7175.0345389 eV	

CRYSTAL	
PRIMVEC	
		3.11200009		0.00000000		0.00000000	
		-1.55600005		2.69506988		0.00000000	
		0.00000000		0.00000000		14.04480186	
PRIMCOORD
   12 1	
O		0.00000000		1.79671419		5.80612019		0.00000000		0.00000000		 0.00004022	
O		1.55600005		0.89835694		8.23868011		0.00000000		0.00000000		-0.00004022	
O		0.00000000		1.79671419		11.45774826		0.00000000		0.00000000		 0.00000604	
O		1.55600005		0.89835694		2.58705205		0.00000000		0.00000000		-0.00000604	
O		0.00000000		0.00000000		0.00000000		0.00000000		0.00000000		0.00000000	
H		0.00000000		1.79671419		4.71764806		0.00000000		0.00000000		 0.00000430	
H		1.55600005		0.89835694		9.32715131		0.00000000		-0.00000000		-0.00000430	
H		0.00000000		1.79671419		10.36787136		0.00000000		0.00000000		-0.00002525	
H		1.55600005		0.89835694		3.67692801		0.00000000		-0.00000000		 0.00002525	
Mg		0.00000000		0.00000000		7.02240031		0.00000000		0.00000000		0.00000000	
Mg		1.55600005		0.89835694		12.68666745		0.00000000		-0.00000000		 0.00003395	
Mg		0.00000000		1.79671419		1.35813192		0.00000000		0.00000000		-0.00003395	
