# total energy = -9075.69283224 eV	

CRYSTAL	
PRIMVEC	
		5.11310008		0.00000000		0.00000000	
		0.00000000		5.31954661		0.00000000	
		-0.00383994		0.00000000		7.33029878	
PRIMCOORD
   28 1	
Mg		3.87988016		2.73424612		1.83990509		 0.00023858		-0.00023459		 0.00066293	
Mg		1.22938202		0.07447384		5.49039420		-0.00023858		-0.00023459		-0.00066293	
Si		1.27731580		0.06915417		1.83257495		 0.00024013		 0.00023177		-0.00003071	
Si		3.83194690		2.72892696		5.49772434		-0.00024013		 0.00023177		 0.00003071	
O		1.85420490		5.19719524		3.53320431		 0.00013312		 0.00012538		 0.00018617	
O		3.25505627		2.53742296		3.79709498		-0.00013312		 0.00012538		-0.00018617	
O		4.40885184		2.92575012		7.16903212		-0.00075377		 0.00020030		-0.00014337	
O		0.70040983		0.26597682		0.16126718		 0.00075377		 0.00020030		 0.00014337	
O		4.63492194		4.27159425		5.07989714		-0.00025022		-0.00014434		-0.00043696	
O		0.47434025		1.61182197		2.25040215		 0.00025022		-0.00014434		 0.00043696	
O		2.29781695		3.51621910		5.87890033		-0.00005063		-0.00036761		-0.00005563	
O		2.81144524		0.85644682		1.45139896		 0.00005063		-0.00036761		 0.00005563	
O		4.84599122		4.46309826		2.34569602		-0.00085776		-0.00018156		 0.00067467	
O		0.26327097		1.80332597		4.98460327		 0.00085776		-0.00018156		-0.00067467	
O		1.99853084		3.75027893		1.31945388		 0.00070398		 0.00075713		-0.00035748	
O		3.11073084		1.09050716		6.01084490		-0.00070398		 0.00075713		 0.00035748	
H		2.33481023		4.27159425		3.58451580		-0.00018465		 0.00034623		 0.00001999	
H		2.77445196		1.61182197		3.74578298		 0.00018465		 0.00034623		-0.00001999	
H		4.92013526		3.71836193		7.22034412		 0.00037479		-0.00018836		-0.00017268	
H		0.18912692		1.05858914		0.10995415		-0.00037479		-0.00018836		 0.00017268	
H		1.56163791		2.90447094		5.67365129		-0.00050578		-0.00037715		 0.00059888	
H		3.54762427		0.24469916		1.65664801		 0.00050578		-0.00037715		-0.00059888	
H		3.95984700		5.05888690		5.35844912		-0.00038289		-0.00022190		-0.00005650	
H		1.14941518		2.39911513		1.97185017		 0.00038289		-0.00022190		 0.00005650	
H		4.77904131		4.53225191		3.26198298		 0.00016412		 0.00061752		-0.00003153	
H		0.33022088		1.87248014		4.06831631		-0.00016412		 0.00061752		 0.00003153	
H		2.10639424		3.68644494		0.38850613		 0.00048126		-0.00056281		 0.00005352	
H		3.00286794		1.02667215		6.94179317		-0.00048126		-0.00056281		-0.00005352	
