# total energy = -9075.48456932 eV	

CRYSTAL	
PRIMVEC	
		5.11310008		0.00000000		0.00000000	
		0.00000000		4.93031187		0.00000000	
		-0.00383994		0.00000000		7.33029878	
PRIMCOORD
   28 1	
Mg		3.87988016		2.53417921		1.83990509		 0.00017041		-0.00022710		-0.00047342	
Mg		1.22938202		0.06902378		5.49039420		-0.00017041		-0.00022710		 0.00047342	
Si		1.27731580		0.06409424		1.83257495		 0.00006125		-0.00012553		 0.00018985	
Si		3.83194690		2.52924915		5.49772434		-0.00006125		-0.00012553		-0.00018985	
O		1.85420490		4.81691302		3.53320431		-0.00007443		-0.00020177		-0.00068642	
O		3.25505627		2.35175811		3.79709498		 0.00007443		-0.00020177		 0.00068642	
O		4.40885184		2.71167025		7.16903212		-0.00027478		 0.00048320		-0.00004301	
O		0.70040983		0.24651585		0.16126718		 0.00027478		 0.00048320		 0.00004301	
O		4.63492194		3.95903913		5.07989714		-0.00012972		 0.00033524		-0.00018329	
O		0.47434025		1.49388422		2.25040215		 0.00012972		 0.00033524		 0.00018329	
O		2.29781695		3.25893506		5.87890033		 0.00042820		 0.00008488		-0.00070469	
O		2.81144524		0.79378015		1.45139896		-0.00042820		 0.00008488		 0.00070469	
O		4.84599122		4.13653018		2.34569602		-0.00022001		-0.00006760		 0.00010580	
O		0.26327097		1.67137527		4.98460327		 0.00022001		-0.00006760		-0.00010580	
O		1.99853084		3.47586805		1.31945388		 0.00079423		-0.00015205		 0.00015461	
O		3.11073084		1.01071314		6.01084490		-0.00079423		-0.00015205		-0.00015461	
H		2.33481023		3.95903913		3.58451580		-0.00019412		-0.00032962		 0.00028633	
H		2.77445196		1.49388422		3.74578298		 0.00019412		-0.00032962		-0.00028633	
H		4.92013526		3.44628723		7.22034412		-0.00027281		 0.00021932		 0.00044396	
H		0.18912692		0.98113181		0.10995415		 0.00027281		 0.00021932		-0.00044396	
H		1.56163791		2.69194902		5.67365129		-0.00001935		 0.00007809		 0.00015149	
H		3.54762427		0.22679411		1.65664801		 0.00001935		 0.00007809		-0.00015149	
H		3.95984700		4.68872402		5.35844912		 0.00044085		 0.00028473		 0.00019414	
H		1.14941518		2.22357014		1.97185017		-0.00044085		 0.00028473		-0.00019414	
H		4.77904131		4.20062391		3.26198298		-0.00003483		-0.00039244		 0.00013419	
H		0.33022088		1.73546900		4.06831631		 0.00003483		-0.00039244		-0.00013419	
H		2.10639424		3.41670488		0.38850613		 0.00014353		 0.00001065		 0.00003692	
H		3.00286794		0.95154997		6.94179317		-0.00014353		 0.00001065		-0.00003692	
