# total energy = -9075.71208907 eV	

CRYSTAL	
PRIMVEC	
		5.11310008		0.00000000		0.00000000	
		0.00000000		5.06005678		0.00000000	
		-0.00383994		0.00000000		7.33029878	
PRIMCOORD
   28 1	
Mg		3.87988016		2.60086784		1.83990509		 0.00019210		 0.00014635		 0.00021851	
Mg		1.22938202		0.07084098		5.49039420		-0.00019210		 0.00014635		-0.00021851	
Si		1.27731580		0.06578106		1.83257495		 0.00010632		 0.00003049		-0.00007822	
Si		3.83194690		2.59580791		5.49772434		-0.00010632		 0.00003049		 0.00007822	
O		1.85420490		4.94367393		3.53320431		-0.00018427		 0.00025544		 0.00054241	
O		3.25505627		2.41364605		3.79709498		 0.00018427		 0.00025544		-0.00054241	
O		4.40885184		2.78303021		7.16903212		 0.00010537		-0.00035368		 0.00023270	
O		0.70040983		0.25300284		0.16126718		-0.00010537		-0.00035368		-0.00023270	
O		4.63492194		4.06322417		5.07989714		 0.00024281		-0.00011111		 0.00019374	
O		0.47434025		1.53319578		2.25040215		-0.00024281		-0.00011111		-0.00019374	
O		2.29781695		3.34469607		5.87890033		-0.00035961		-0.00000241		 0.00019065	
O		2.81144524		0.81466921		1.45139896		 0.00035961		-0.00000241		-0.00019065	
O		4.84599122		4.24538603		2.34569602		 0.00051570		 0.00009700		-0.00089128	
O		0.26327097		1.71535918		4.98460327		-0.00051570		 0.00009700		 0.00089128	
O		1.99853084		3.56733885		1.31945388		-0.00047288		-0.00065722		 0.00020636	
O		3.11073084		1.03731098		6.01084490		 0.00047288		-0.00065722		-0.00020636	
H		2.33481023		4.06322417		3.58451580		-0.00018769		-0.00056605		 0.00047294	
H		2.77445196		1.53319578		3.74578298		 0.00018769		-0.00056605		-0.00047294	
H		4.92013526		3.53697829		7.22034412		-0.00066292		 0.00041576		-0.00026797	
H		0.18912692		1.00695092		0.10995415		 0.00066292		 0.00041576		 0.00026797	
H		1.56163791		2.76279000		5.67365129		-0.00011616		-0.00011020		-0.00014904	
H		3.54762427		0.23276314		1.65664801		 0.00011616		-0.00011020		 0.00014904	
H		3.95984700		4.81211233		5.35844912		-0.00012430		 0.00020408		-0.00011309	
H		1.14941518		2.28208496		1.97185017		 0.00012430		 0.00020408		 0.00011309	
H		4.77904131		4.31116709		3.26198298		-0.00030479		 0.00031843		-0.00066259	
H		0.33022088		1.78113921		4.06831631		 0.00030479		 0.00031843		 0.00066259	
H		2.10639424		3.50661823		0.38850613		 0.00048799		 0.00033311		-0.00003107	
H		3.00286794		0.97659087		6.94179317		-0.00048799		 0.00033311		 0.00003107	
