# total energy = -18390.7270081 eV	

CRYSTAL	
PRIMVEC	
		11.10979961		0.00000000		0.00000000	
		0.00000000		6.38940129		-0.25558094	
		0.00000000		-0.19312165		4.82809672	
PRIMCOORD
   28 1	
Mg		0.00000000		0.00000000		0.00000000		0.00000000		0.00000000		0.00000000	
Mg		5.55489981		-0.09656193		2.41404947		0.00000000		0.00000000		0.00000000	
Mg		0.00000000		3.19469954		-0.12778825		0.00000000		0.00000000		0.00000000	
Mg		5.55489981		3.09813760		2.28626233		0.00000000		0.00000000		0.00000000	
Ca		3.07563692		1.40858150		4.65533267		 0.00006865		-0.00061064		 0.00021254	
Ca		8.03416380		4.78769482		-0.08280800		-0.00006865		 0.00061064		-0.00021254	
Ca		2.47926288		4.69984297		2.11349495		-0.00006865		-0.00061064		 0.00021254	
Ca		8.63053673		1.49643335		2.45902971		 0.00006865		 0.00061064		-0.00021254	
Si		0.90611526		1.51797969		1.92035886		-0.00008077		 0.00023283		-0.00026596	
Si		10.20368436		4.67829551		2.65216580		 0.00008077		-0.00023283		 0.00026596	
Si		4.64878455		4.61611730		4.20662119		 0.00008077		 0.00023283		-0.00026596	
Si		6.46101617		1.58015791		0.36590347		-0.00008077		-0.00023283		 0.00026596	
O		0.86289814		1.45333732		3.53642031		-0.00025004		 0.00018934		-0.00055363	
O		10.24690148		4.74293899		1.03610436		 0.00025004		-0.00018934		 0.00055363	
O		4.69200167		4.74459879		0.99458148		 0.00025004		 0.00018934		-0.00055363	
O		6.41779794		1.45167641		3.57794207		-0.00025004		-0.00018934		 0.00055363	
O		4.98841224		1.54984149		1.12381845		 0.00012646		 0.00061239		 0.00015072	
O		6.12138849		4.64643483		3.44870622		-0.00012646		-0.00061239		-0.00015072	
O		0.56648868		4.64797909		3.41008078		-0.00012646		 0.00061239		 0.00015072	
O		10.54331204		1.54829723		1.16244278		 0.00012646		-0.00061239		-0.00015072	
O		1.63902874		0.23921509		1.30784006		 0.00049267		 0.00024566		-0.00090399	
O		9.47077088		5.95706122		3.26468350		-0.00049267		-0.00024566		 0.00090399	
O		3.91587107		5.94806228		3.48967360		 0.00014608		 0.00003202		-0.00002154	
O		7.19392854		0.24821403		1.08285106		-0.00014608		-0.00003202		 0.00002154	
O		9.47077088		3.34635163		3.36911339		 0.00014608		-0.00003202		 0.00002154	
O		1.63902874		2.84992357		1.20341238		-0.00014608		 0.00003202		-0.00002154	
O		7.19392854		2.85892251		0.97842228		 0.00049267		-0.00024566		 0.00090399	
O		3.91587107		3.33735270		3.59410239		-0.00049267		 0.00024566		-0.00090399	
