# total energy = -18390.7270082 eV	

CRYSTAL	
PRIMVEC	
		11.10979961		0.00000000		0.00000000	
		0.00000000		6.38940129		0.25558094	
		0.00000000		0.19312165		4.82809672	
PRIMCOORD
   28 1	
Mg		0.00000000		0.00000000		0.00000000		0.00000000		0.00000000		0.00000000	
Mg		5.55489981		0.09656193		2.41404947		0.00000000		0.00000000		0.00000000	
Mg		0.00000000		3.19469954		0.12778825		0.00000000		0.00000000		-0.00000000	
Mg		5.55489981		3.29126147		2.54183772		0.00000000		0.00000000		0.00000000	
Ca		3.07563692		1.78611915		4.78312091		 0.00006915		 0.00061053		 0.00021246	
Ca		8.03416380		4.79640490		0.30055563		-0.00006915		-0.00061053		-0.00021246	
Ca		2.47926288		4.88425675		2.49685858		-0.00006915		 0.00061053		 0.00021246	
Ca		8.63053673		1.69826730		2.58681796		 0.00006915		-0.00061053		-0.00021246	
Si		0.90611526		1.67671984		2.04814711		-0.00008052		-0.00023266		-0.00026624	
Si		10.20368436		4.90580421		3.03552944		 0.00008052		 0.00023266		 0.00026624	
Si		4.64878455		4.96798131		4.58998482		 0.00008052		-0.00023266		-0.00026624	
Si		6.46101617		1.61454163		0.49369172		-0.00008052		 0.00023266		 0.00026624	
O		0.86289814		1.74136332		3.66420744		-0.00025014		-0.00018923		-0.00055317	
O		10.24690148		4.84116073		1.41946799		 0.00025014		 0.00018923		 0.00055317	
O		4.69200167		4.83950092		1.37794622		 0.00025014		-0.00018923		-0.00055317	
O		6.41779794		1.74302313		3.70573032		-0.00025014		 0.00018923		 0.00055317	
O		4.98841224		1.64485916		1.25160669		 0.00012644		-0.00061310		 0.00015073	
O		6.12138849		4.93766600		3.83206985		-0.00012644		 0.00061310		-0.00015073	
O		0.56648868		4.93612063		3.79344441		-0.00012644		-0.00061310		 0.00015073	
O		10.54331204		1.64640342		1.29023102		 0.00012644		 0.00061310		-0.00015073	
O		1.63902874		0.34477597		1.33119952		-0.00014557		-0.00003228		-0.00002103	
O		9.47077088		6.23774809		3.75247702		 0.00014557		 0.00003228		 0.00002103	
O		3.91587107		6.24674702		3.97746602		-0.00049186		-0.00024643		-0.00090382	
O		7.19392854		0.33577703		1.10620941		 0.00049186		 0.00024643		 0.00090382	
O		9.47077088		3.62703850		3.64804824		-0.00049186		 0.00024643		 0.00090382	
O		1.63902874		2.95548444		1.43562830		 0.00049186		-0.00024643		-0.00090382	
O		7.19392854		2.94648550		1.21063931		-0.00014557		 0.00003228		 0.00002103	
O		3.91587107		3.63603744		3.87303835		 0.00014557		-0.00003228		-0.00002103	
