# total energy = -18389.5010046 eV	

CRYSTAL	
PRIMVEC	
		11.10979961		0.00000000		0.00000000	
		0.00000000		6.38940129		0.51115077	
		0.00000000		0.38624329		4.82809672	
PRIMCOORD
   28 1	
Mg		0.00000000		0.00000000		0.00000000		0.00000000		0.00000000		0.00000000	
Mg		5.55489981		0.19312387		2.41404947		0.00000000		0.00000000		-0.00000000	
Mg		0.00000000		3.19469954		0.25557650		0.00000000		0.00000000		0.00000000	
Mg		5.55489981		3.38782340		2.66962596		0.00000000		0.00000000		-0.00000000	
Ca		3.07563692		1.97488798		4.84701448		-0.00052657		-0.00021598		-0.00072394	
Ca		8.03416380		4.80075994		0.49223745		 0.00052657		 0.00021598		 0.00072394	
Ca		2.47926288		4.97646365		2.68854040		 0.00052657		-0.00021598		-0.00072394	
Ca		8.63053673		1.79918428		2.65071153		-0.00052657		 0.00021598		 0.00072394	
Si		0.90611526		1.75609047		2.11204068		 0.00053675		 0.00056439		-0.00065471	
Si		10.20368436		5.01955745		3.22721236		-0.00053675		-0.00056439		 0.00065471	
Si		4.64878455		5.14391388		4.78166664		-0.00053675		 0.00056439		-0.00065471	
Si		6.46101617		1.63173404		0.55758640		 0.00053675		-0.00056439		 0.00065471	
O		0.86289814		1.88537521		3.72810212		 0.00015896		 0.00085137		-0.00046821	
O		10.24690148		4.89027271		1.61114981		-0.00015896		-0.00085137		 0.00046821	
O		4.69200167		4.88695088		1.56962804		-0.00015896		 0.00085137		-0.00046821	
O		6.41779794		1.88869704		3.76962389		 0.00015896		-0.00085137		 0.00046821	
O		4.98841224		1.69236688		1.31550137		-0.00041148		-0.00087583		 0.00030369	
O		6.12138849		5.08328104		4.02375167		 0.00041148		 0.00087583		-0.00030369	
O		0.56648868		5.08019029		3.98512734		 0.00041148		-0.00087583		 0.00030369	
O		10.54331204		1.69545652		1.35412459		-0.00041148		 0.00087583		-0.00030369	
O		1.63902874		0.39755751		1.34287925		 0.00014226		-0.00000718		-0.00085416	
O		9.47077088		6.37809041		3.99637268		-0.00014226		 0.00000718		 0.00085416	
O		3.91587107		6.39608939		4.22136167		 0.00051521		-0.00054772		 0.00034873	
O		7.19392854		0.37955853		1.11789026		-0.00051521		 0.00054772		-0.00034873	
O		9.47077088		3.76738193		3.78751622		 0.00051521		 0.00054772		-0.00034873	
O		1.63902874		3.00826599		1.55173571		-0.00051521		-0.00054772		 0.00034873	
O		7.19392854		2.99026700		1.32674671		 0.00014226		 0.00000718		 0.00085416	
O		3.91587107		3.78538092		4.01250633		-0.00014226		-0.00000718		-0.00085416	
