# total energy = -18387.5301928 eV	

CRYSTAL	
PRIMVEC	
		11.10979961		0.00000000		0.00000000	
		0.00000000		6.38940129		-0.76673171	
		0.00000000		-0.57937605		4.82809672	
PRIMCOORD
   28 1	
Mg		0.00000000		0.00000000		0.00000000		0.00000000		0.00000000		0.00000000	
Mg		5.55489981		-0.28968580		2.41404947		0.00000000		0.00000000		0.00000000	
Mg		0.00000000		3.19469954		-0.38336363		-0.00000000		0.00000000		0.00000000	
Mg		5.55489981		2.90501373		2.03068584		0.00000000		0.00000000		0.00000000	
Ca		3.07563692		1.03104273		4.52754442		 0.00024186		-0.00035525		-0.00047751	
Ca		8.03416380		4.77898474		-0.46617164		-0.00024186		 0.00035525		 0.00047751	
Ca		2.47926288		4.51542918		1.73013132		-0.00024186		-0.00035525		-0.00047751	
Ca		8.63053673		1.29459940		2.33124147		 0.00024186		 0.00035525		 0.00047751	
Si		0.90611526		1.35923954		1.79257061		-0.00054102		 0.00094246		 0.00065193	
Si		10.20368436		4.45078792		2.26880217		 0.00054102		-0.00094246		-0.00065193	
Si		4.64878455		4.26425439		3.82325645		 0.00054102		 0.00094246		 0.00065193	
Si		6.46101617		1.54577419		0.23811634		-0.00054102		-0.00094246		-0.00065193	
O		0.86289814		1.16531244		3.40863206		 0.00006877		 0.00082507		 0.00074950	
O		10.24690148		4.64471614		0.65273961		-0.00006877		-0.00082507		-0.00074950	
O		4.69200167		4.64969778		0.61121785		-0.00006877		 0.00082507		 0.00074950	
O		6.41779794		1.16032969		3.45015382		 0.00006877		-0.00082507		-0.00074950	
O		4.98841224		1.45482382		0.99603131		 0.00019538		-0.00000730		-0.00092430	
O		6.12138849		4.35520254		3.06534147		-0.00019538		 0.00000730		 0.00092430	
O		0.56648868		4.35983755		3.02671714		-0.00019538		-0.00000730		-0.00092430	
O		10.54331204		1.45018992		1.03465453		 0.00019538		 0.00000730		 0.00092430	
O		1.63902874		0.13365311		1.28447948		 0.00062690		 0.00003759		-0.00066818	
O		9.47077088		5.67637436		2.77689219		-0.00062690		-0.00003759		 0.00066818	
O		3.91587107		5.64937532		3.00188119		 0.00040402		 0.00009311		 0.00019729	
O		7.19392854		0.16065215		1.05949048		-0.00040402		-0.00009311		-0.00019729	
O		9.47077088		3.06566588		3.09017743		 0.00040402		-0.00009311		-0.00019729	
O		1.63902874		2.74436159		0.97119535		-0.00040402		 0.00009311		 0.00019729	
O		7.19392854		2.77136062		0.74620636		 0.00062690		-0.00003759		 0.00066818	
O		3.91587107		3.03866684		3.31516643		-0.00062690		 0.00003759		-0.00066818	
