# total energy = -9139.82451605 eV	

CRYSTAL	
PRIMVEC	
		5.27369671		-0.31511095		0.00691157	
		-2.89661877		5.03315176		-0.01546570	
		-0.01487374		0.01451643		9.11496038	
PRIMCOORD
   14 1	
Mg		1.75828199		0.20276118		4.24939226		 0.00021207		 0.00045754		 0.00025920	
Mg		-1.38069175		2.39794757		3.01991985		 0.00009454		-0.00031665		 0.00017664	
Mg		1.31485213		3.29957169		4.24340704		-0.00016729		-0.00080890		-0.00038939	
Si		0.21205927		2.96268130		0.86212206		-0.00019605		 0.00006155		 0.00047323	
Si		2.60408187		0.98790779		0.87089911		-0.00006223		 0.00041901		-0.00016500	
O		0.39263090		3.09444586		2.46753468		 0.00048877		 0.00010461		 0.00008988	
O		2.40102631		0.89720147		2.47636240		-0.00047991		-0.00037629		-0.00050095	
O		2.86149883		-0.52067782		9.34829778		 0.00011436		-0.00004146		 0.00034510	
O		-1.27236946		2.19692175		9.82327073		 0.00027444		-0.00015552		-0.00004095	
O		1.37831803		1.97537614		9.34417537		-0.00033623		-0.00005267		-0.00048869	
O		3.65980462		0.03193454		5.04954113		-0.00016746		 0.00026206		 0.00002158	
O		-2.07743642		3.60616158		4.23347433		-0.00010241		-0.00012984		 0.00025433	
O		0.50434071		1.56728541		5.03843730		 0.00046440		-0.00012454		 0.00006948	
O		-0.57756546		0.99466310		4.22630997		-0.00013700		 0.00070109		-0.00010445	
