# total energy = -9139.79019838 eV	

CRYSTAL	
PRIMVEC	
		5.52374507		-0.22116483		-0.02152932	
		-2.87137768		5.07016811		0.03149136	
		0.00716222		0.00495969		9.71532281	
PRIMCOORD
   14 1	
Mg		2.01776336		-0.15741788		4.03666584		-0.00037857		 0.00036944		 0.00036000	
Mg		-1.12177621		1.98834013		3.70506099		-0.00046735		 0.00061081		 0.00021916	
Mg		1.75541817		3.04159210		4.05001647		 0.00009280		 0.00064840		 0.00047713	
Si		0.04026788		3.27804344		1.10527271		-0.00014798		-0.00002267		-0.00036479	
Si		2.69320536		1.43202827		1.08760182		-0.00008759		 0.00001342		-0.00014072	
O		0.17276839		3.32814964		2.73588109		-0.00036138		-0.00055796		 0.00004489	
O		2.58562063		1.34641123		2.71861231		 0.00030272		-0.00030118		 0.00000694	
O		2.79632798		-0.17620071		10.26277656		 0.00050509		-0.00005571		-0.00009408	
O		-1.37897666		2.45375634		10.46514097		 0.00025766		-0.00053885		-0.00036483	
O		1.37984220		2.36937816		10.27924593		-0.00007402		-0.00029801		-0.00030331	
O		4.11761971		-0.09536577		4.57027459		 0.00018521		-0.00000259		 0.00055210	
O		-1.95167522		3.45399776		4.53613326		 0.00058187		-0.00071067		 0.00001228	
O		0.62270717		1.27285263		4.58989896		 0.00008115		 0.00038814		 0.00024385	
O		-0.41595797		0.74496406		5.50390471		-0.00048963		 0.00045742		-0.00064862	
