# total energy = -9137.47066042 eV	

CRYSTAL	
PRIMVEC	
		5.32854661		-0.00022399		-0.00121059	
		-2.66446796		4.61111950		0.00049597	
		-0.00198388		-0.00021332		6.13539746	
PRIMCOORD
   14 1	
Mg		1.88731978		-0.00029331		3.00557355		 0.00026560		 0.00000133		-0.00016318	
Mg		-0.94533125		1.63237360		3.00669881		-0.00013725		 0.00001905		-0.00008709	
Mg		1.71906578		2.97848938		3.00611058		-0.00014048		-0.00002592		-0.00007618	
Si		-0.00027465		3.07356876		0.18844474		-0.00000180		-0.00004458		 0.00008570	
Si		2.66398692		1.53728995		0.18787358		-0.00002861		 0.00003815		 0.00008763	
O		-0.00021492		3.07319279		1.78796173		 0.00005863		-0.00007925		-0.00019708	
O		2.66398532		1.53765366		1.78739110		 0.00003741		 0.00008618		-0.00019706	
O		2.52935161		-0.00036211		5.76640935		-0.00006156		-0.00000381		 0.00020507	
O		-1.26843371		2.19079573		5.76629309		-0.00006417		 0.00000027		 0.00005225	
O		1.39582147		2.41968061		5.76557580		-0.00006499		-0.00001142		 0.00004920	
O		3.67154522		-0.00030238		3.83289406		-0.00017916		 0.00000009		 0.00032251	
O		-1.83911587		3.18025542		3.83281566		-0.00006287		 0.00008510		 0.00014305	
O		0.82510731		1.43028118		3.83212664		-0.00008064		-0.00011606		 0.00010201	
O		0.00335606		0.00028958		2.18178616		 0.00045987		 0.00005084		-0.00032682	
