# total energy = -9139.94963859 eV	

CRYSTAL	
PRIMVEC	
		5.33299967		0.00000000		0.00000000	
		-2.66649983		4.61851637		0.00000000	
		0.00000000		0.00000000		7.32400043	
PRIMCOORD
   14 1	
Mg		1.77428899		0.00000000		3.33974358		-0.00156059		 0.00047113		-0.00331167	
Mg		-0.88714503		1.53658013		3.33974358		 0.00076128		 0.00365643		-0.00305675	
Mg		1.77935481		3.08193357		3.33974358		 0.00261150		-0.00459793		 0.00238658	
Si		0.00000000		3.07900896		0.56394818		-0.00043225		-0.00073455		-0.00105994	
Si		2.66649983		1.53950475		0.56394818		-0.00143434		 0.00640209		-0.00101093	
O		0.00000000		3.07900896		2.13714309		 0.00068777		 0.00174033		 0.00183520	
O		2.66649983		1.53950475		2.13714309		-0.00876718		-0.00246005		 0.00638025	
O		2.67183283		0.00000000		7.27273164		-0.00059816		 0.00125838		-0.00178704	
O		-1.33591695		2.31387496		7.27273164		 0.00045369		-0.00245293		 0.00099398	
O		1.33058395		2.30463767		7.27273164		 0.00151301		-0.00091123		-0.00027955	
O		3.53044578		0.00000000		4.33580766		 0.00307384		-0.00159197		 0.00315559	
O		-1.76522289		3.05745564		4.33580766		 0.00080025		 0.00384335		-0.00221750	
O		0.90127694		1.56105806		4.33580766		 0.00075892		 0.00188951		 0.00219712	
O		0.00000000		0.00000000		2.21917209		 0.00213226		-0.00651257		-0.00422534	
