# total energy = -10313.9425484 eV

CRYSTAL
PRIMVEC
		4.97999984		0.00000000		0.00000000
		0.00000000		8.84999756		0.00000000
		0.00000000		0.00000000		2.47500016
PRIMECORD
   14 1
Si		0.00000000		0.00000000		0.00000000		0.00000000		0.00000000		0.00000000
Si		2.48999992		4.42499978		0.00000000		0.00000000		0.00000000		0.00000000
Mg		0.40786199		2.94616492		1.23750008		 0.00002288		-0.00039706		-0.00000000
Mg		4.57213786		5.90383464		1.23750008		-0.00002288		 0.00039706		-0.00000000
Mg		2.08213793		7.37116470		1.23750008		-0.00002288		-0.00039706		0.00000000
Mg		2.89786191		1.47883486		1.23750008		 0.00002288		 0.00039706		0.00000000
O		1.07767197		0.39648020		1.23750008		-0.00025087		 0.00034051		-0.00000000
O		3.90232788		8.45352085		1.23750008		 0.00025087		-0.00034051		0.00000000
O		1.41232796		4.82147998		1.23750008		 0.00025087		 0.00034051		0.00000000
O		3.56767189		4.02852008		1.23750008		-0.00025087		-0.00034051		0.00000000
O		1.95464994		2.73199505		0.00000000		 0.00042812		 0.00019446		0.00000000
O		3.02534991		6.11800600		0.00000000		-0.00042812		-0.00019446		0.00000000
O		0.53534998		7.15699482		0.00000000		-0.00042812		 0.00019446		0.00000000
O		4.44464986		1.69300473		0.00000000		 0.00042812		-0.00019446		0.00000000
