# total energy = -22443.3861435 eV	

CRYSTAL	
PRIMVEC	
		9.05300002		0.00000000		0.00000000	
		0.00000000		7.67699834		-0.92124234	
		-0.52464851		-0.56663632		4.72194523	
PRIMCOORD
   40 1	
Ca		6.64561268		0.46714385		0.36326339		-0.00009639		-0.00027625		 0.00023486	
Ca		1.88274336		6.64322268		3.43744040		 0.00009639		 0.00027625		-0.00023486	
Ca		2.14506490		4.12443546		1.41272065		 0.00009807		-0.00015481		 0.00013956	
Ca		6.38329114		2.98593199		2.38798224		-0.00009807		 0.00015481		-0.00013956	
Mg		1.97928999		1.03132863		1.75271241		 0.00002345		 0.00002750		-0.00042154	
Mg		6.54906696		6.07903791		2.04799139		-0.00002345		-0.00002750		 0.00042154	
Mg		6.81138940		5.04344623		-0.15471124		-0.00007308		-0.00002427		 0.00011662	
Mg		1.71696845		2.06692122		3.95541504		 0.00007308		 0.00002427		-0.00011662	
Si		4.38151984		1.01220145		2.03191689		-0.00024741		 0.00011434		-0.00009020	
Si		4.14683711		6.09816600		1.76878601		 0.00024741		-0.00011434		 0.00009020	
Si		4.40915865		5.09174670		-0.43741742		 0.00031288		-0.00009817		 0.00001956	
Si		4.11919830		2.01861984		4.23812122		-0.00031288		 0.00009817		-0.00001956	
Si		0.14788438		6.40920988		0.45674377		-0.00016084		 0.00009981		-0.00035036	
Si		8.38047347		0.70115666		3.34395913		 0.00016084		-0.00009981		 0.00035036	
Si		8.64279501		2.58589621		0.79081576		 0.00004169		 0.00033057		-0.00022289	
Si		-0.11443807		4.52447123		3.00988713		-0.00004169		-0.00033057		 0.00022289	
O		3.50493414		1.23574265		0.37714074		-0.00023391		 0.00021738		-0.00008512	
O		5.02342190		5.87462298		3.42356215		 0.00023391		-0.00021738		 0.00008512	
O		5.28574434		4.91887333		1.21127782		-0.00004341		-0.00002403		 0.00052363	
O		3.24261170		2.19149412		2.58942507		 0.00004341		 0.00002403		-0.00052363	
O		3.49747718		3.66019762		-0.04038091		 0.00034089		-0.00021419		 0.00019928	
O		5.03087976		3.45016892		3.84108380		-0.00034089		 0.00021419		-0.00019928	
O		5.29320220		7.31250283		1.05062962		 0.00011367		 0.00046904		-0.00012342	
O		3.23515474		-0.20213629		2.75007327		-0.00011367		-0.00046904		 0.00012342	
O		5.43097891		2.09943506		0.99206758		-0.00022763		 0.00007667		-0.00011584	
O		3.09737713		5.01093057		2.80863532		 0.00022763		-0.00007667		 0.00011584	
O		3.35969867		5.95754122		0.36806873		 0.00020666		-0.00022402		 0.00055595	
O		5.16865737		1.15282622		3.43263507		-0.00020666		 0.00022402		-0.00055595	
O		1.17630971		2.57638694		0.69980867		-0.00047730		 0.00010611		 0.00027315	
O		7.35204724		4.53397960		3.10089422		 0.00047730		-0.00010611		-0.00027315	
O		7.61436878		6.37726274		0.55272639		 0.00049537		 0.00044199		-0.00002512	
O		0.91398817		0.73310379		3.24797741		-0.00049537		-0.00044199		 0.00002512	
O		0.85195973		0.10950237		0.90973778		 0.00054113		-0.00011824		-0.00009708	
O		7.67639631		7.00086507		2.89096602		-0.00054113		 0.00011824		 0.00009708	
O		7.93871785		3.88941234		0.93736573		-0.00035550		-0.00007840		 0.00002446	
O		0.58963819		3.22095511		2.86333716		 0.00035550		 0.00007840		-0.00002446	
O		0.94307183		5.40361169		-0.32498369		-0.00019499		-0.00015635		 0.00016112	
O		7.58528420		1.70675485		4.12568839		 0.00019499		 0.00015635		-0.00016112	
O		7.84760574		1.36055727		1.84025673		 0.00064852		-0.00009890		 0.00001449	
O		0.68075029		5.74981018		1.96044617		-0.00064852		 0.00009890		-0.00001449	
