# total energy = -18390.7759213 eV

CRYSTAL
PRIMVEC
		4.81499975		0.00000000		0.00000000
		0.00000000		11.07999815		0.44320147
		0.00000000		0.25480016		6.36999910
PRIMECORD
   28 1
Mg		0.00000000		0.00000000		0.00000000		0.00000000		-0.00000000		0.00000000
Mg		2.40749987		5.53999956		0.22159977		0.00000000		0.00000000		0.00000000
Mg		0.00000000		0.12740008		3.18500003		-0.00000000		-0.00000000		0.00000000
Mg		2.40749987		5.66739963		3.40659980		0.00000000		0.00000000		0.00000000
Ca		4.73314475		2.91126007		1.70640172		-0.00024391		-0.00076213		 0.00108691
Ca		0.08185500		8.42353968		5.10679788		 0.00024391		 0.00076213		-0.00108691
Ca		2.32564488		2.88353964		4.88519763		-0.00024391		 0.00076213		-0.00108691
Ca		2.48935487		8.45125963		1.92800198		 0.00024391		-0.00076213		 0.00108691
Si		1.94044490		1.01657982		1.63061507		-0.00104290		 0.00536479		 0.00306462
Si		2.87455485		10.31821945		5.18258453		 0.00104290		-0.00536479		-0.00306462
Si		4.34794477		4.77821989		4.96098476		-0.00104290		-0.00536479		-0.00306462
Si		0.46705498		6.55657986		1.85221484		 0.00104290		 0.00536479		 0.00306462
O		3.67865981		0.80605985		1.62219412		 0.00183561		-0.00142073		 0.00079175
O		1.13633994		10.52873942		5.19100452		-0.00183561		 0.00142073		-0.00079175
O		1.27115993		4.98873986		4.96940571		 0.00183561		 0.00142073		-0.00079175
O		3.54383981		6.34605988		1.84379389		-0.00183561		-0.00142073		 0.00079175
O		3.54383981		5.20481972		1.79814480		 0.00043229		-0.00277047		 0.00142384
O		1.27115993		6.12997955		5.01505480		-0.00043229		 0.00277047		-0.00142384
O		1.13633994		0.58997999		4.79345455		 0.00043229		 0.00277047		-0.00142384
O		3.67865981		10.74481928		2.01974505		-0.00043229		-0.00277047		 0.00142384
O		1.20374994		1.70288389		0.25890976		-0.00069117		-0.00189346		-0.00237468
O		3.61124981		9.63191538		6.55428985		 0.00069117		 0.00189346		 0.00237468
O		3.61124981		4.09191583		6.33268959		-0.00069117		 0.00189346		 0.00237468
O		1.20374994		7.24288344		0.48051001		 0.00069117		-0.00189346		-0.00237468
O		3.61124981		9.51980341		3.75148957		 0.00161188		-0.00133385		-0.00165272
O		1.20374994		1.81499586		3.06171004		-0.00161188		 0.00133385		 0.00165272
O		1.20374994		7.35499541		3.28330981		 0.00161188		 0.00133385		 0.00165272
O		3.61124981		3.97980385		3.52988980		-0.00161188		-0.00133385		-0.00165272
