# total energy = -18376.396488 eV

CRYSTAL
PRIMVEC
		4.81499975		0.00000000		0.00000000
		0.00000000		11.07999815		-1.77280105
		0.00000000		-1.01920063		6.36999910
PRIMECORD
   28 1
Mg		0.00000000		0.00000000		0.00000000		0.00000000		0.00000000		0.00000000
Mg		2.40749987		5.53999956		-0.88640004		0.00000000		0.00000000		0.00000000
Mg		0.00000000		-0.50959983		3.18500003		0.00000000		-0.00000000		-0.00000000
Mg		2.40749987		5.03039972		2.29859999		-0.00000000		0.00000000		0.00000000
Ca		4.73314475		2.59275988		1.13688981		 0.00016878		-0.00003612		-0.00062658
Ca		0.08185500		7.46803957		3.46030872		-0.00016878		 0.00003612		 0.00062658
Ca		2.32564488		1.92804001		4.34670972		 0.00016878		 0.00003612		 0.00062658
Ca		2.48935487		8.13275943		0.25048977		-0.00016878		-0.00003612		-0.00062658
Si		1.94044490		0.69808011		1.44003883		-0.00023019		 0.00017277		 0.00021211
Si		2.87455485		9.36271934		3.15716067		 0.00023019		-0.00017277		-0.00021211
Si		4.34794477		3.82271978		4.04356071		-0.00023019		-0.00017277		-0.00021211
Si		0.46705498		6.23807966		0.55363878		 0.00023019		 0.00017277		 0.00021211
O		3.67865981		0.48756013		1.47372216		-0.00052619		-0.00038623		-0.00011300
O		1.13633994		9.57323931		3.12347782		 0.00052619		 0.00038623		 0.00011300
O		1.27115993		4.03323976		4.00987786		-0.00052619		 0.00038623		 0.00011300
O		3.54383981		6.02755969		0.58732211		 0.00052619		-0.00038623		-0.00011300
O		3.54383981		4.88631952		0.76992087		-0.00020401		 0.00030856		-0.00043497
O		1.27115993		5.17447992		3.82727863		 0.00020401		-0.00030856		 0.00043497
O		1.13633994		-0.36552011		4.71367867		-0.00020401		-0.00030856		 0.00043497
O		3.67865981		10.42631956		-0.11647918		 0.00020401		 0.00030856		-0.00043497
O		1.20374994		1.66466386		-0.08013797		-0.00010086		-0.00014575		 0.00013280
O		3.61124981		8.39613559		4.67733794		 0.00010086		 0.00014575		-0.00013280
O		3.61124981		2.85613603		5.56373750		-0.00010086		 0.00014575		-0.00013280
O		1.20374994		7.20466342		-0.96653801		 0.00010086		-0.00014575		 0.00013280
O		3.61124981		8.84458348		1.87453766		 0.00064886		 0.00001363		 0.00013512
O		1.20374994		1.21621597		2.72266183		-0.00064886		-0.00001363		-0.00013512
O		1.20374994		6.75621553		1.83626179		 0.00064886		-0.00001363		-0.00013512
O		3.61124981		3.30458392		2.76093771		-0.00064886		 0.00001363		 0.00013512
