# total energy = -18376.3964893 eV

CRYSTAL
PRIMVEC
		4.81499975		0.00000000		0.00000000
		0.00000000		11.07999815		1.77280105
		0.00000000		1.01920063		6.36999910
PRIMECORD
   28 1
Mg		0.00000000		0.00000000		0.00000000		0.00000000		0.00000000		0.00000000
Mg		2.40749987		5.53999956		0.88640004		0.00000000		0.00000000		0.00000000
Mg		0.00000000		0.50959983		3.18500003		0.00000000		0.00000000		0.00000000
Mg		2.40749987		6.04959987		4.07139959		0.00000000		0.00000000		0.00000000
Ca		4.73314475		3.10235971		2.04810974		 0.00016951		-0.00003513		 0.00062430
Ca		0.08185500		8.99683955		6.09468945		-0.00016951		 0.00003513		-0.00062430
Ca		2.32564488		3.45683999		5.20828989		 0.00016951		 0.00003513		-0.00062430
Ca		2.48935487		8.64235975		2.93450978		-0.00016951		-0.00003513		 0.00062430
Si		1.94044490		1.20767994		1.74496072		-0.00022997		 0.00017357		-0.00021265
Si		2.87455485		10.89151932		6.39783847		 0.00022997		-0.00017357		 0.00021265
Si		4.34794477		5.35151976		5.51143890		-0.00022997		-0.00017357		 0.00021265
Si		0.46705498		6.74767950		2.63136077		 0.00022997		 0.00017357		-0.00021265
O		3.67865981		0.99715997		1.71127787		-0.00052763		-0.00038652		 0.00011385
O		1.13633994		11.10203929		6.43152180		 0.00052763		 0.00038652		-0.00011385
O		1.27115993		5.56203974		5.54512175		-0.00052763		 0.00038652		-0.00011385
O		3.54383981		6.53715952		2.59767792		 0.00052763		-0.00038652		 0.00011385
O		3.54383981		5.39591984		2.41507868		-0.00020354		 0.00030809		 0.00043568
O		1.27115993		6.70327942		5.72772051		 0.00020354		-0.00030809		-0.00043568
O		1.13633994		1.16327986		4.84132094		-0.00020354		-0.00030809		-0.00043568
O		3.67865981		10.93591939		3.30147873		 0.00020354		 0.00030809		 0.00043568
O		1.20374994		1.72581580		0.46233820		-0.00064854		-0.00001377		 0.00013368
O		3.61124981		10.37338345		7.68046147		 0.00064854		 0.00001377		-0.00013368
O		3.61124981		4.83338390		6.79406142		-0.00064854		 0.00001377		-0.00013368
O		1.20374994		7.26581584		1.34873776		 0.00064854		-0.00001377		 0.00013368
O		3.61124981		9.92493556		4.87766071		 0.00009949		 0.00014476		 0.00013191
O		1.20374994		2.17426369		3.26513800		-0.00009949		-0.00014476		-0.00013191
O		1.20374994		7.71426373		4.15153756		 0.00009949		-0.00014476		-0.00013191
O		3.61124981		4.38493601		3.99126067		-0.00009949		 0.00014476		 0.00013191
