# total energy = -7715.81536508 eV

CRYSTAL
PRIMVEC
		4.33486881		0.00000000		0.00000000
		0.00000000		4.44601918		0.00000000
		0.00000000		0.00000000		4.44601918
PRIMECORD
   8 1
Ca		0.00000000		0.00000000		0.00000000		0.00000000		0.00000000		0.00000000
Mg		0.00000000		2.22301002		2.22301002		0.00000000		0.00000000		0.00000000
Mg		2.16743397		0.00000000		2.22301002		0.00000000		0.00000000		0.00000000
Mg		2.16743397		2.22301002		0.00000000		0.00000000		0.00000000		0.00000000
O		0.00000000		0.00000000		2.22301002		0.00000000		0.00000000		0.00000000
O		2.16743397		0.00000000		0.00000000		0.00000000		0.00000000		0.00000000
O		0.00000000		2.22301002		0.00000000		0.00000000		0.00000000		0.00000000
O		2.16743397		2.22301002		2.22301002		0.00000000		0.00000000		0.00000000
