# total energy = -7714.97614921 eV

CRYSTAL
PRIMVEC
		4.00141679		0.00000000		0.00000000
		0.00000000		4.44601821		0.00000000
		0.00000000		0.00000000		4.44601821
PRIMECORD
   8 1
Ca		0.00000000		0.00000000		0.00000000		0.00000000		0.00000000		0.00000000
Mg		0.00000000		2.22300991		2.22300991		0.00000000		0.00000000		0.00000000
Mg		2.00070880		0.00000000		2.22300991		0.00000000		0.00000000		0.00000000
Mg		2.00070880		2.22300991		0.00000000		0.00000000		0.00000000		0.00000000
O		0.00000000		0.00000000		2.22300991		0.00000000		0.00000000		0.00000000
O		2.00070880		0.00000000		0.00000000		0.00000000		0.00000000		0.00000000
O		0.00000000		2.22300991		0.00000000		0.00000000		0.00000000		0.00000000
O		2.00070880		2.22300991		2.22300991		0.00000000		0.00000000		0.00000000
