# total energy = -7715.74422725 eV

CRYSTAL
PRIMVEC
		4.55716980		0.00000000		0.00000000
		0.00000000		4.44602043		0.00000000
		0.00000000		0.00000000		4.44602043
PRIMECORD
   8 1
Ca		0.00000000		0.00000000		0.00000000		0.00000000		0.00000000		0.00000000
Mg		0.00000000		2.22300976		2.22300976		0.00000000		0.00000000		0.00000000
Mg		2.27858490		0.00000000		2.22300976		0.00000000		0.00000000		0.00000000
Mg		2.27858490		2.22300976		0.00000000		0.00000000		0.00000000		0.00000000
O		0.00000000		0.00000000		2.22300976		0.00000000		0.00000000		0.00000000
O		2.27858490		0.00000000		0.00000000		0.00000000		0.00000000		0.00000000
O		0.00000000		2.22300976		0.00000000		0.00000000		0.00000000		0.00000000
O		2.27858490		2.22300976		2.22300976		0.00000000		0.00000000		0.00000000
