# total energy = -20634.7105285 eV	

CRYSTAL	
PRIMVEC	
		10.20141391		-1.63223077		0.00000000	
		-0.95735788		5.98347901		0.00000000	
		0.00000000		0.00000000		4.75534134	
PRIMCOORD
   28 1	
Mg		0.00000000		0.00000000		0.00000000		0.00000000		0.00000000		0.00000000	
Mg		5.10070489		-0.81611332		2.37766964		0.00000000		0.00000000		0.00000000	
Mg		-0.47867791		2.99173950		0.00000000		0.00000000		0.00000000		0.00000000	
Mg		4.62202698		2.17562722		2.37766964		0.00000000		0.00000000		0.00000000	
Mg		2.58951220		1.04325427		4.71491963		-0.00070743		 0.00092395		-0.00091691	
Mg		6.65454176		3.30800120		0.04041964		 0.00070743		-0.00092395		 0.00091691	
Mg		1.55383584		4.12411348		2.33725000		 0.00070743		-0.00092395		-0.00091691	
Mg		7.69021709		0.22714095		2.41809031		-0.00070743		 0.00092395		 0.00091691	
Si		0.71959340		1.34244062		2.02767670		 0.00049238		 0.00040071		-0.00074252	
Si		8.52445954		3.00881382		2.72766258		-0.00049238		-0.00040071		 0.00074252	
Si		3.42375465		3.82492610		4.40534737		-0.00049238		-0.00040071		-0.00074252	
Si		5.82029829		0.52632833		0.34999294		 0.00049238		 0.00040071		 0.00074252	
O		0.69510957		1.34635819		3.63926167		-0.00038117		-0.00074260		-0.00053896	
O		8.54894439		3.00489624		1.11607760		 0.00038117		 0.00074260		 0.00053896	
O		3.44823847		3.82100853		1.26159203		 0.00038117		 0.00074260		-0.00053896	
O		5.79581550		0.53024487		3.49374828		-0.00038117		-0.00074260		 0.00053896	
O		4.31967103		0.76642766		1.05140556		-0.00025250		 0.00086729		 0.00066045	
O		4.92438190		3.58482574		3.70393475		 0.00025250		-0.00086729		-0.00066045	
O		-0.17632299		4.40093906		3.42907623		 0.00025250		-0.00086729		 0.00066045	
O		9.42037592		-0.04968360		1.32626408		-0.00025250		 0.00086729		-0.00066045	
O		1.62798466		-0.06691184		1.32103341		 0.00071357		 0.00071122		-0.00052840	
O		7.61606827		4.41816628		3.43430690		-0.00071357		-0.00071122		 0.00052840	
O		2.51536338		5.23427856		3.69870305		-0.00071357		-0.00071122		-0.00052840	
O		6.72868955		-0.88302413		1.05663726		 0.00071357		 0.00071122		 0.00052840	
O		8.03117853		1.82372921		3.43430690		 0.00037524		-0.00015126		-0.00038244	
O		1.21287544		2.52752522		1.32103341		-0.00037524		 0.00015126		 0.00038244	
O		6.31358033		1.71141294		1.05663726		-0.00037524		 0.00015126		-0.00038244	
O		2.93047261		2.63984253		3.69870305		 0.00037524		-0.00015126		 0.00038244	
