# total energy = -20638.494438 eV	

CRYSTAL	
PRIMVEC	
		10.20141015		0.40805600		0.00000000	
		0.23934289		5.98348044		0.00000000	
		0.00000000		0.00000000		4.75534093	
PRIMCOORD
   28 1	
Mg		0.00000000		0.00000000		0.00000000		0.00000000		-0.00000000		-0.00000000	
Mg		5.10070507		0.20402800		2.37766944		0.00000000		0.00000000		0.00000000	
Mg		0.11967043		2.99174022		0.00000000		0.00000000		-0.00000000		0.00000000	
Mg		5.22037448		3.19576822		2.37766944		-0.00000000		0.00000000		0.00000000	
Mg		2.88868587		1.60902377		4.71492023		-0.00017631		 0.00073980		-0.00003705	
Mg		7.55206411		4.78251165		0.04041968		 0.00017631		-0.00073980		 0.00003705	
Mg		2.45135802		4.57848365		2.33724976		 0.00017631		-0.00073980		-0.00003705	
Mg		7.98939094		1.81305177		2.41809014		-0.00017631		 0.00073980		 0.00003705	
Si		1.01876681		1.53422746		2.02767730		 0.00023049		 0.00016616		-0.00017428	
Si		9.42198215		4.85730898		2.72766261		-0.00023049		-0.00016616		 0.00017428	
Si		4.32127708		4.65328098		4.40534674		-0.00023049		-0.00016616		-0.00017428	
Si		6.11947188		1.73825545		0.34999317		 0.00023049		 0.00016616		 0.00017428	
O		0.99428426		1.53324836		3.63926163		 0.00031760		-0.00023546		 0.00008431	
O		9.44646572		4.85828808		1.11607828		-0.00031760		 0.00023546		-0.00008431	
O		4.34575962		4.65426008		1.26159218		-0.00031760		 0.00023546		 0.00008431	
O		6.09498934		1.73727636		3.49374772		 0.00031760		-0.00023546		-0.00008431	
O		4.61884513		1.67823034		1.05140577		-0.00023394		-0.00014865		-0.00008510	
O		5.82190382		4.71330610		3.70393515		 0.00023394		 0.00014865		 0.00008510	
O		0.72119875		4.50927810		3.42907624		 0.00023394		 0.00014865		-0.00008510	
O		9.71955021		1.88225936		1.32626367		-0.00023394		-0.00014865		 0.00008510	
O		1.66771449		0.26504242		1.32103331		-0.00038078		 0.00011647		 0.00032208	
O		8.77303345		6.12649402		3.43430660		 0.00038078		-0.00011647		-0.00032208	
O		3.67232939		5.92246602		3.69870275		 0.00038078		-0.00011647		 0.00032208	
O		6.76842058		0.46907144		1.05663716		-0.00038078		 0.00011647		-0.00032208	
O		8.66925728		3.53205708		3.43430660		-0.00027239		-0.00078543		 0.00046026	
O		1.77149270		2.85947936		1.32103331		 0.00027239		 0.00078543		-0.00046026	
O		6.87219778		3.06350736		1.05663716		 0.00027239		 0.00078543		 0.00046026	
O		3.56855118		3.32802908		3.69870275		-0.00027239		-0.00078543		-0.00046026	
