# total energy = -20637.4674351 eV	

CRYSTAL	
PRIMVEC	
		10.20140705		0.81611052		0.00000000	
		0.47867499		5.98348345		0.00000000	
		0.00000000		0.00000000		4.75534177	
PRIMCOORD
   28 1	
Mg		0.00000000		0.00000000		0.00000000		0.00000000		-0.00000000		0.00000000	
Mg		5.10070455		0.40805628		2.37766986		-0.00000000		0.00000000		0.00000000	
Mg		0.23933852		2.99173968		0.00000000		0.00000000		0.00000000		0.00000000	
Mg		5.34004409		3.39979596		2.37766986		0.00000000		-0.00000000		-0.00000000	
Mg		2.94852046		1.72217792		4.71491950		 0.00032197		-0.00087952		-0.00074272	
Mg		7.73156772		5.07741503		0.04042022		-0.00032197		 0.00087952		 0.00074272	
Mg		2.63086317		4.66935773		2.33724964		-0.00032197		 0.00087952		-0.00074272	
Mg		8.04922604		2.13023420		2.41809008		 0.00032197		-0.00087952		 0.00074272	
Si		1.07860244		1.57258546		2.02767721		 0.00090644		-0.00064028		-0.00025850	
Si		9.60148677		5.22700749		2.72766251		-0.00090644		 0.00064028		 0.00025850	
Si		4.50078222		4.81895223		4.40534707		-0.00090644		 0.00064028		-0.00025850	
Si		6.17930699		1.98064072		0.34999265		 0.00090644		-0.00064028		 0.00025850	
O		1.05411862		1.57062564		3.63926241		 0.00080451		-0.00036818		 0.00023867	
O		9.62596957		5.22896730		1.11607834		-0.00080451		 0.00036818		-0.00023867	
O		4.52526502		4.82091000		1.26159152		-0.00080451		 0.00036818		 0.00023867	
O		6.15482419		1.97868193		3.49374820		 0.00080451		-0.00036818		-0.00023867	
O		4.67867988		1.86059075		1.05140558		 0.00033583		-0.00034933		-0.00019658	
O		6.00140933		4.93900220		3.70393516		-0.00033583		 0.00034933		 0.00019658	
O		0.90070376		4.53094591		3.42907647		-0.00033583		 0.00034933		-0.00019658	
O		9.77938443		2.26864703		1.32626428		 0.00033583		-0.00034933		 0.00019658	
O		1.67566233		0.33143328		1.32103266		-0.00059074		 0.00005106		 0.00045350	
O		9.00442688		6.46815966		3.43430706		 0.00059074		-0.00005106		-0.00045350	
O		3.90372233		6.06010338		3.69870251		 0.00059074		-0.00005106		 0.00045350	
O		6.77636688		0.73948854		1.05663720		-0.00059074		 0.00005106		-0.00045350	
O		8.79687210		3.87372340		3.43430706		 0.00036000		-0.00057631		-0.00009437	
O		1.88321711		2.92586955		1.32103266		-0.00036000		 0.00057631		 0.00009437	
O		6.98392166		3.33392583		1.05663720		-0.00036000		 0.00057631		-0.00009437	
O		3.69616653		3.46566712		3.69870251		 0.00036000		-0.00057631		 0.00009437	
