# total energy = -20636.0682289 eV	

CRYSTAL	
PRIMVEC	
		10.20141117		-1.22416687		0.00000000	
		-0.71801967		5.98348356		0.00000000	
		0.00000000		0.00000000		4.75534041	
PRIMCOORD
   28 1	
Mg		0.00000000		0.00000000		0.00000000		0.00000000		0.00000000		0.00000000	
Mg		5.10070456		-0.61208446		2.37767021		-0.00000000		-0.00000000		0.00000000	
Mg		-0.35900881		2.99173972		0.00000000		0.00000000		0.00000000		0.00000000	
Mg		4.74169575		2.37965526		2.37767021		0.00000000		0.00000000		0.00000000	
Mg		2.64934699		1.15640796		4.71492015		 0.00030372		 0.00047155		-0.00020861	
Mg		6.83404553		3.60290256		0.04042027		-0.00030372		-0.00047155		 0.00020861	
Mg		1.73334097		4.21498702		2.33724994		-0.00030372		-0.00047155		-0.00020861	
Mg		7.75005155		0.54432247		2.41808944		 0.00030372		 0.00047155		 0.00020861	
Si		0.77942786		1.38079797		2.02767736		 0.00012575		 0.00005115		 0.00022661	
Si		8.70396467		3.37851255		2.72766306		-0.00012575		-0.00005115		-0.00022661	
Si		3.60326011		3.99059701		4.40534654		-0.00012575		-0.00005115		 0.00022661	
Si		5.88013241		0.76871248		0.34999285		 0.00012575		 0.00005115		-0.00022661	
O		0.75494452		1.38373548		3.63926230		-0.00025893		-0.00033153		 0.00032227	
O		8.72844800		3.37557504		1.11607811		 0.00025893		 0.00033153		-0.00032227	
O		3.62774242		3.98765848		1.26159209		 0.00025893		 0.00033153		 0.00032227	
O		5.85565010		0.77165101		3.49374832		-0.00025893		-0.00033153		-0.00032227	
O		4.37950592		0.94878918		1.05140569		 0.00027223		 0.00007567		 0.00008173	
O		5.10388660		3.81052134		3.70393472		-0.00027223		-0.00007567		-0.00008173	
O		0.00318204		4.42260683		3.42907589		-0.00027223		-0.00007567		 0.00008173	
O		9.48021048		0.33670368		1.32626349		 0.00027223		 0.00007567		-0.00008173	
O		1.63593060		-0.00052092		1.32103269		 0.00007026		 0.00020890		 0.00023618	
O		7.84746089		4.75983041		3.43430669		-0.00007026		-0.00020890		-0.00023618	
O		2.74675634		5.37191590		3.69870290		-0.00007026		-0.00020890		 0.00023618	
O		6.73663618		-0.61260539		1.05663649		 0.00007026		 0.00020890		-0.00023618	
O		8.15879352		2.16539497		3.43430669		 0.00018063		-0.00006633		 0.00029828	
O		1.32459901		2.59391554		1.32103269		-0.00018063		 0.00006633		-0.00029828	
O		6.42530356		1.98183211		1.05663649		-0.00018063		 0.00006633		 0.00029828	
O		3.05808896		2.77747841		3.69870290		 0.00018063		-0.00006633		-0.00029828	
