# total energy = -44012.0757067 eV	

CRYSTAL	
PRIMVEC	
		10.55434982		0.00000000		0.00000000	
		0.00000000		18.04699886		0.00000000	
		-1.43417783		0.00000000		5.10350309	
PRIMCOORD
   82 1	
Si		2.53434848		1.51594765		1.51267897		-0.00041584		-0.00008981		 0.00016548	
Si		6.58582141		16.53105226		3.59082517		 0.00041584		 0.00008981		-0.00016548	
Si		6.58582141		1.51594765		3.59082517		 0.00041584		-0.00008981		-0.00016548	
Si		2.53434848		16.53105226		1.51267897		-0.00041584		 0.00008981		 0.00016548	
Si		7.81152339		10.53944814		1.51267897		 0.00017015		 0.00011072		 0.00036128	
Si		1.30864650		7.50755283		3.59082517		-0.00017015		-0.00011072		-0.00036128	
Si		1.30864650		10.53944814		3.59082517		-0.00017015		 0.00011072		-0.00036128	
Si		7.81152339		7.50755283		1.51267897		 0.00017015		-0.00011072		 0.00036128	
Si		1.89367411		3.08784180		4.10423835		-0.00049845		-0.00080637		 0.00036764	
Si		7.22649683		14.95915917		0.99926579		 0.00049845		 0.00080637		-0.00036764	
Si		7.22649683		3.08784180		0.99926579		 0.00049845		-0.00080637		-0.00036764	
Si		1.89367411		14.95915917		4.10423835		-0.00049845		 0.00080637		 0.00036764	
Si		7.17084902		12.11134229		4.10423835		 0.00038731		-0.00007274		 0.00047848	
Si		1.94932192		5.93565763		0.99926579		-0.00038731		 0.00007274		-0.00047848	
Si		1.94932192		12.11134229		0.99926579		-0.00038731		-0.00007274		-0.00047848	
Si		7.17084902		5.93565763		4.10423835		 0.00038731		 0.00007274		 0.00047848	
O		2.78260367		2.13856986		3.00290145		 0.00032389		 0.00022247		 0.00014440	
O		6.33756727		15.90843112		2.10060164		-0.00032389		-0.00022247		-0.00014440	
O		6.33756727		2.13856986		2.10060164		-0.00032389		 0.00022247		-0.00014440	
O		2.78260367		15.90843112		3.00290145		 0.00032389		-0.00022247		 0.00014440	
O		8.05977858		11.16206929		3.00290145		 0.00023899		 0.00015749		-0.00000883	
O		1.06039236		6.88493063		2.10060164		-0.00023899		-0.00015749		 0.00000883	
O		1.06039236		11.16206929		2.10060164		-0.00023899		 0.00015749		 0.00000883	
O		8.05977858		6.88493063		3.00290145		 0.00023899		-0.00015749		-0.00000883	
O		0.86756122		1.55204247		1.10797137		-0.00015871		-0.00000068		 0.00008701	
O		8.25260972		16.49495744		3.99553277		 0.00015871		 0.00000068		-0.00008701	
O		8.25260972		1.55204247		3.99553277		 0.00015871		-0.00000068		-0.00008701	
O		0.86756122		16.49495744		1.10797137		-0.00015871		 0.00000068		 0.00008701	
O		6.14473508		10.57554296		1.10797137		-0.00043153		-0.00007142		 0.00001212	
O		2.97543481		7.47145801		3.99553277		 0.00043153		 0.00007142		-0.00001212	
O		2.97543481		10.57554296		3.99553277		 0.00043153		-0.00007142		-0.00001212	
O		6.14473508		7.47145801		1.10797137		-0.00043153		 0.00007142		 0.00001212	
O		2.71882479		4.47565542		4.04860849		-0.00045990		 0.00039830		-0.00017963	
O		6.40134615		13.57134344		1.05489354		 0.00045990		-0.00039830		 0.00017963	
O		6.40134615		4.47565542		1.05489354		 0.00045990		 0.00039830		 0.00017963	
O		2.71882479		13.57134344		4.04860849		-0.00045990		-0.00039830		-0.00017963	
O		7.99599970		13.49915696		4.04860849		-0.00081014		-0.00021907		-0.00023420	
O		1.12417124		4.54784401		1.05489354		 0.00081014		 0.00021907		 0.00023420	
O		1.12417124		13.49915696		1.05489354		 0.00081014		-0.00021907		 0.00023420	
O		7.99599970		4.54784401		4.04860849		-0.00081014		 0.00021907		-0.00023420	
O		3.13789158		0.00000000		1.49073331		-0.00037115		0.00000000		 0.00057463	
O		5.98227830		0.00000000		3.61276978		 0.00037115		0.00000000		-0.00057463	
O		8.41506649		9.02349943		1.49073331		-0.00059491		0.00000000		 0.00049140	
O		0.70510339		9.02349943		3.61276978		 0.00059491		0.00000000		-0.00049140	
O		0.21234507		3.08964659		3.69493644		 0.00043378		 0.00077435		-0.00014908	
O		8.90782587		14.95735332		1.40856664		-0.00043378		-0.00077435		 0.00014908	
O		8.90782587		3.08964659		1.40856664		-0.00043378		 0.00077435		 0.00014908	
O		0.21234507		14.95735332		3.69493644		 0.00043378		-0.00077435		-0.00014908	
O		5.48951999		12.11314813		3.69493644		-0.00005163		 0.00074040		-0.00029062	
O		3.63065096		5.93385389		1.40856664		 0.00005163		-0.00074040		 0.00029062	
O		3.63065096		12.11314813		1.40856664		 0.00005163		 0.00074040		 0.00029062	
O		5.48951999		5.93385389		3.69493644		-0.00005163		-0.00074040		-0.00029062	
O		0.13103225		0.00000000		3.65002558		 0.00015126		0.00000000		 0.00021126	
O		8.98913869		0.00000000		1.45347751		-0.00015126		0.00000000		-0.00021126	
O		5.40820716		9.02349943		3.65002558		 0.00013156		0.00000000		 0.00019075	
O		3.71196378		9.02349943		1.45347751		-0.00013156		0.00000000		-0.00019075	
O		3.51481169		2.42371145		0.50626789		 0.00066569		 0.00000989		 0.00064195	
O		5.60535925		15.62328847		4.59723625		-0.00066569		-0.00000989		-0.00064195	
O		5.60535925		2.42371145		4.59723625		-0.00066569		 0.00000989		-0.00064195	
O		3.51481169		15.62328847		0.50626789		 0.00066569		-0.00000989		 0.00064195	
O		8.79198660		11.44721299		0.50626789		 0.00055509		-0.00013111		 0.00078036	
O		0.32818434		6.59978798		4.59723625		-0.00055509		 0.00013111		-0.00078036	
O		0.32818434		11.44721299		4.59723625		-0.00055509		-0.00013111		-0.00078036	
O		8.79198660		6.59978798		0.50626789		 0.00055509		 0.00013111		 0.00078036	
Ca		-0.71708997		5.00984695		2.55175154		0.00000000		-0.00012758		0.00000000	
Ca		-0.71708997		13.03715402		2.55175154		0.00000000		 0.00012758		0.00000000	
Ca		4.56008494		14.03334744		2.55175154		0.00000000		-0.00000445		0.00000000	
Ca		4.56008494		4.01365248		2.55175154		0.00000000		 0.00000445		0.00000000	
Mg		0.00000000		0.00000000		0.00000000		0.00000000		0.00000000		0.00000000	
Mg		5.27717491		9.02349943		0.00000000		0.00000000		0.00000000		0.00000000	
Mg		0.00000000		3.18710018		0.00000000		0.00000000		-0.00020110		0.00000000	
Mg		0.00000000		14.85990079		0.00000000		0.00000000		 0.00020110		0.00000000	
Mg		5.27717491		12.21059961		0.00000000		0.00000000		-0.00024451		0.00000000	
Mg		5.27717491		5.83640030		0.00000000		0.00000000		 0.00024451		0.00000000	
Mg		-0.71708997		1.58452665		2.55175154		0.00000000		-0.00008885		0.00000000	
Mg		-0.71708997		16.46247327		2.55175154		0.00000000		 0.00008885		0.00000000	
Mg		4.56008494		10.60802819		2.55175154		0.00000000		-0.00015593		0.00000000	
Mg		4.56008494		7.43897384		2.55175154		0.00000000		 0.00015593		0.00000000	
H		0.99599816		0.00000000		3.92969790		-0.00046852		-0.00000000		-0.00001431	
H		8.12417278		0.00000000		1.17380624		 0.00046852		-0.00000000		 0.00001431	
H		6.27317307		9.02349943		3.92969790		-0.00041650		0.00000000		-0.00000546	
H		2.84699787		9.02349943		1.17380624		 0.00041650		0.00000000		 0.00000546	
