# total energy = -92495.8684831 eV	

CRYSTAL	
PRIMVEC	
		18.49999946		0.00000000		0.00000000	
		0.00000000		17.45249249		0.00000000	
		0.00000000		0.00000000		5.27000235	
PRIMCOORD
   164 1	
Mg		2.40499993		2.96692261		2.00259904		 0.00052609		 0.00013585		 0.00029265	
Mg		16.09499953		14.48556617		3.26739960		-0.00052609		-0.00013585		-0.00029265	
Mg		6.84499980		14.48556617		4.63760021		-0.00052609		-0.00013585		 0.00029265	
Mg		11.65499966		2.96692261		0.63240028		 0.00052609		 0.00013585		-0.00029265	
Mg		16.09499953		11.69316886		3.26739960		-0.00052609		 0.00013585		-0.00029265	
Mg		2.40499993		5.75932178		2.00259904		 0.00052609		-0.00013585		 0.00029265	
Mg		11.65499966		5.75932178		0.63240028		 0.00052609		-0.00013585		-0.00029265	
Mg		6.84499980		11.69316886		4.63760021		-0.00052609		 0.00013585		 0.00029265	
Mg		2.40499993		1.39619866		4.58489927		-0.00045444		 0.00038118		-0.00040486	
Mg		16.09499953		16.05629013		0.68509938		 0.00045444		-0.00038118		 0.00040486	
Mg		6.84499980		16.05629013		1.94989994		 0.00045444		-0.00038118		-0.00040486	
Mg		11.65499966		1.39619866		3.32010055		-0.00045444		 0.00038118		 0.00040486	
Mg		16.09499953		10.12244305		0.68509938		 0.00045444		 0.00038118		 0.00040486	
Mg		2.40499993		7.33004573		4.58489927		-0.00045444		-0.00038118		-0.00040486	
Mg		11.65499966		7.33004573		3.32010055		-0.00045444		-0.00038118		 0.00040486	
Mg		6.84499980		10.12244305		1.94989994		 0.00045444		 0.00038118		-0.00040486	
Mg		2.40499993		17.10344005		2.00259904		-0.00037233		 0.00038802		 0.00039257	
Mg		16.09499953		0.34905059		3.26739960		 0.00037233		-0.00038802		-0.00039257	
Mg		6.84499980		0.34905059		4.63760021		 0.00037233		-0.00038802		 0.00039257	
Mg		11.65499966		17.10344005		0.63240028		-0.00037233		 0.00038802		-0.00039257	
Mg		16.09499953		8.37719565		3.26739960		 0.00037233		 0.00038802		-0.00039257	
Mg		2.40499993		9.07529498		2.00259904		-0.00037233		-0.00038802		 0.00039257	
Mg		11.65499966		9.07529498		0.63240028		-0.00037233		-0.00038802		-0.00039257	
Mg		6.84499980		8.37719565		4.63760021		 0.00037233		 0.00038802		 0.00039257	
Mg		2.40499993		4.36312312		4.58489927		-0.00012986		0.00000000		 0.00021155	
Mg		16.09499953		13.08936752		0.68509938		 0.00012986		0.00000000		-0.00021155	
Mg		6.84499980		13.08936752		1.94989994		 0.00012986		0.00000000		 0.00021155	
Mg		11.65499966		4.36312312		3.32010055		-0.00012986		0.00000000		-0.00021155	
Si		0.55499998		14.31104088		1.52829976		-0.00015819		 0.00019914		 0.00042673	
Si		17.94500132		3.14144791		3.74170074		 0.00015819		-0.00019914		-0.00042673	
Si		8.69499974		3.14144791		4.16329908		 0.00015819		-0.00019914		 0.00042673	
Si		9.80499786		14.31104088		1.10669957		-0.00015819		 0.00019914		-0.00042673	
Si		17.94500132		5.58479649		3.74170074		 0.00015819		 0.00019914		-0.00042673	
Si		0.55499998		11.86769415		1.52829976		-0.00015819		-0.00019914		 0.00042673	
Si		9.80499786		11.86769415		1.10669957		-0.00015819		-0.00019914		-0.00042673	
Si		8.69499974		5.58479649		4.16329908		 0.00015819		 0.00019914		 0.00042673	
Si		0.55499998		16.05629013		4.16329908		 0.00028267		 0.00024197		-0.00007146	
Si		17.94500132		1.39619866		1.10669957		-0.00028267		-0.00024197		 0.00007146	
Si		8.69499974		1.39619866		1.52829976		-0.00028267		-0.00024197		-0.00007146	
Si		9.80499786		16.05629013		3.74170074		 0.00028267		 0.00024197		 0.00007146	
Si		17.94500132		7.33004573		1.10669957		-0.00028267		 0.00024197		 0.00007146	
Si		0.55499998		10.12244305		4.16329908		 0.00028267		-0.00024197		-0.00007146	
Si		9.80499786		10.12244305		3.74170074		 0.00028267		-0.00024197		 0.00007146	
Si		8.69499974		7.33004573		1.52829976		-0.00028267		 0.00024197		-0.00007146	
Si		4.06999988		16.05629013		0.21080009		 0.00024832		-0.00041177		 0.00012970	
Si		14.42999773		1.39619866		5.05920040		-0.00024832		 0.00041177		-0.00012970	
Si		5.17999985		1.39619866		2.84579942		-0.00024832		 0.00041177		 0.00012970	
Si		13.32000146		16.05629013		2.42419923		 0.00024832		-0.00041177		-0.00012970	
Si		14.42999773		7.33004573		5.05920040		-0.00024832		-0.00041177		-0.00012970	
Si		4.06999988		10.12244305		0.21080009		 0.00024832		 0.00041177		 0.00012970	
Si		13.32000146		10.12244305		2.42419923		 0.00024832		 0.00041177		-0.00012970	
Si		5.17999985		7.33004573		2.84579942		-0.00024832		-0.00041177		 0.00012970	
Si		4.06999988		14.31104088		2.84579942		-0.00001799		 0.00019990		 0.00006404	
Si		14.42999773		3.14144791		2.42419923		 0.00001799		-0.00019990		-0.00006404	
Si		5.17999985		3.14144791		0.21080009		 0.00001799		-0.00019990		 0.00006404	
Si		13.32000146		14.31104088		5.05920040		-0.00001799		 0.00019990		-0.00006404	
Si		14.42999773		5.58479649		2.42419923		 0.00001799		 0.00019990		-0.00006404	
Si		4.06999988		11.86769415		2.84579942		-0.00001799		-0.00019990		 0.00006404	
Si		13.32000146		11.86769415		5.05920040		-0.00001799		-0.00019990		-0.00006404	
Si		5.17999985		5.58479649		0.21080009		 0.00001799		 0.00019990		 0.00006404	
O		1.10999997		1.22167336		1.05400047		 0.00008603		 0.00017155		-0.00075129	
O		17.38999949		16.23081542		4.21600003		-0.00008603		-0.00017155		 0.00075129	
O		8.13999976		16.23081542		3.68899979		-0.00008603		-0.00017155		-0.00075129	
O		10.35999970		1.22167336		1.58100070		 0.00008603		 0.00017155		 0.00075129	
O		17.38999949		9.94791961		4.21600003		-0.00008603		 0.00017155		 0.00075129	
O		1.10999997		7.50457103		1.05400047		 0.00008603		-0.00017155		-0.00075129	
O		10.35999970		7.50457103		1.58100070		 0.00008603		-0.00017155		 0.00075129	
O		8.13999976		9.94791961		3.68899979		-0.00008603		 0.00017155		-0.00075129	
O		1.10999997		3.14144791		3.68899979		 0.00018743		 0.00043682		-0.00037540	
O		17.38999949		14.31104088		1.58100070		-0.00018743		-0.00043682		 0.00037540	
O		8.13999976		14.31104088		1.05400047		-0.00018743		-0.00043682		-0.00037540	
O		10.35999970		3.14144791		4.21600003		 0.00018743		 0.00043682		 0.00037540	
O		17.38999949		11.86769415		1.58100070		-0.00018743		 0.00043682		 0.00037540	
O		1.10999997		5.58479649		3.68899979		 0.00018743		-0.00043682		-0.00037540	
O		10.35999970		5.58479649		4.21600003		 0.00018743		-0.00043682		 0.00037540	
O		8.13999976		11.86769415		1.05400047		-0.00018743		 0.00043682		-0.00037540	
O		1.10999997		13.08936752		1.05400047		-0.00035218		0.00000000		-0.00009276	
O		17.38999949		4.36312312		4.21600003		 0.00035218		0.00000000		 0.00009276	
O		8.13999976		4.36312312		3.68899979		 0.00035218		-0.00000000		-0.00009276	
O		10.35999970		13.08936752		1.58100070		-0.00035218		0.00000000		 0.00009276	
O		1.10999997		4.36312312		1.05400047		 0.00061995		-0.00000000		-0.00007974	
O		17.38999949		13.08936752		4.21600003		-0.00061995		-0.00000000		 0.00007974	
O		8.13999976		13.08936752		3.68899979		-0.00061995		0.00000000		-0.00007974	
O		10.35999970		4.36312312		1.58100070		 0.00061995		0.00000000		 0.00007974	
O		1.10999997		0.00000000		3.68899979		 0.00009461		 0.00025208		-0.00014540	
O		17.38999949		0.00000000		1.58100070		-0.00009461		-0.00025208		 0.00014540	
O		8.13999976		0.00000000		1.05400047		-0.00009461		-0.00025208		-0.00014540	
O		10.35999970		0.00000000		4.21600003		 0.00009461		 0.00025208		 0.00014540	
O		17.38999949		8.72624439		1.58100070		-0.00009461		 0.00025208		 0.00014540	
O		1.10999997		8.72624439		3.68899979		 0.00009461		-0.00025208		-0.00014540	
O		10.35999970		8.72624439		4.21600003		 0.00009461		-0.00025208		 0.00014540	
O		8.13999976		8.72624439		1.05400047		-0.00009461		 0.00025208		-0.00014540	
O		0.92499997		15.18366735		0.26349919		-0.00029878		-0.00003053		 0.00014739	
O		17.57499948		2.26882328		5.00649945		 0.00029878		 0.00003053		-0.00014739	
O		8.32499976		2.26882328		2.89850036		 0.00029878		 0.00003053		 0.00014739	
O		10.17499970		15.18366735		2.37150013		-0.00029878		-0.00003053		-0.00014739	
O		17.57499948		6.45742111		5.00649945		 0.00029878		-0.00003053		-0.00014739	
O		0.92499997		10.99506953		0.26349919		-0.00029878		 0.00003053		 0.00014739	
O		10.17499970		10.99506953		2.37150013		-0.00029878		 0.00003053		-0.00014739	
O		8.32499976		6.45742111		2.89850036		 0.00029878		-0.00003053		 0.00014739	
O		0.92499997		15.18366735		2.84579942		 0.00030636		 0.00027340		 0.00051646	
O		17.57499948		2.26882328		2.42419923		-0.00030636		-0.00027340		-0.00051646	
O		8.32499976		2.26882328		0.21080009		-0.00030636		-0.00027340		 0.00051646	
O		10.17499970		15.18366735		5.05920040		 0.00030636		 0.00027340		-0.00051646	
O		17.57499948		6.45742111		2.42419923		-0.00030636		 0.00027340		-0.00051646	
O		0.92499997		10.99506953		2.84579942		 0.00030636		-0.00027340		 0.00051646	
O		10.17499970		10.99506953		5.05920040		 0.00030636		-0.00027340		-0.00051646	
O		8.32499976		6.45742111		0.21080009		-0.00030636		 0.00027340		 0.00051646	
O		3.51499990		3.14144791		0.26349919		-0.00025285		-0.00005217		 0.00007417	
O		14.98499956		14.31104088		5.00649945		 0.00025285		 0.00005217		-0.00007417	
O		5.73499983		14.31104088		2.89850036		 0.00025285		 0.00005217		 0.00007417	
O		12.76499963		3.14144791		2.37150013		-0.00025285		-0.00005217		-0.00007417	
O		14.98499956		11.86769415		5.00649945		 0.00025285		-0.00005217		-0.00007417	
O		3.51499990		5.58479649		0.26349919		-0.00025285		 0.00005217		 0.00007417	
O		12.76499963		5.58479649		2.37150013		-0.00025285		 0.00005217		-0.00007417	
O		5.73499983		11.86769415		2.89850036		 0.00025285		-0.00005217		 0.00007417	
O		3.51499990		1.22167336		2.95119946		-0.00026729		 0.00040897		-0.00019573	
O		14.98499956		16.23081542		2.31879918		 0.00026729		-0.00040897		 0.00019573	
O		5.73499983		16.23081542		0.31620014		 0.00026729		-0.00040897		-0.00019573	
O		12.76499963		1.22167336		4.95380035		-0.00026729		 0.00040897		 0.00019573	
O		14.98499956		9.94791961		2.31879918		 0.00026729		 0.00040897		 0.00019573	
O		3.51499990		7.50457103		2.95119946		-0.00026729		-0.00040897		-0.00019573	
O		12.76499963		7.50457103		4.95380035		-0.00026729		-0.00040897		 0.00019573	
O		5.73499983		9.94791961		0.31620014		 0.00026729		 0.00040897		-0.00019573	
O		3.51499990		0.00000000		0.26349919		-0.00026234		 0.00002788		 0.00024330	
O		14.98499956		0.00000000		5.00649945		 0.00026234		-0.00002788		-0.00024330	
O		5.73499983		0.00000000		2.89850036		 0.00026234		-0.00002788		 0.00024330	
O		12.76499963		0.00000000		2.37150013		-0.00026234		 0.00002788		-0.00024330	
O		14.98499956		8.72624439		5.00649945		 0.00026234		 0.00002788		-0.00024330	
O		3.51499990		8.72624439		0.26349919		-0.00026234		-0.00002788		 0.00024330	
O		12.76499963		8.72624439		2.37150013		-0.00026234		-0.00002788		-0.00024330	
O		5.73499983		8.72624439		2.89850036		 0.00026234		 0.00002788		 0.00024330	
O		3.51499990		13.08936752		2.37150013		 0.00018126		0.00000000		-0.00053785	
O		14.98499956		4.36312312		2.89850036		-0.00018126		-0.00000000		 0.00053785	
O		5.73499983		4.36312312		5.00649945		-0.00018126		-0.00000000		-0.00053785	
O		12.76499963		13.08936752		0.26349919		 0.00018126		0.00000000		 0.00053785	
O		3.51499990		4.36312312		2.89850036		-0.00079441		0.00000000		-0.00029032	
O		14.98499956		13.08936752		2.37150013		 0.00079441		0.00000000		 0.00029032	
O		5.73499983		13.08936752		0.26349919		 0.00079441		0.00000000		-0.00029032	
O		12.76499963		4.36312312		5.00649945		-0.00079441		0.00000000		 0.00029032	
O		3.69999989		15.18366735		1.58100070		-0.00018640		 0.00027409		 0.00035619	
O		14.79999957		2.26882328		3.68899979		 0.00018640		-0.00027409		-0.00035619	
O		5.54999984		2.26882328		4.21600003		 0.00018640		-0.00027409		 0.00035619	
O		12.94999962		15.18366735		1.05400047		-0.00018640		 0.00027409		-0.00035619	
O		14.79999957		6.45742111		3.68899979		 0.00018640		 0.00027409		-0.00035619	
O		3.69999989		10.99506953		1.58100070		-0.00018640		-0.00027409		 0.00035619	
O		12.94999962		10.99506953		1.05400047		-0.00018640		-0.00027409		-0.00035619	
O		5.54999984		6.45742111		4.21600003		 0.00018640		 0.00027409		 0.00035619	
O		3.69999989		15.18366735		4.21600003		-0.00017061		 0.00002983		 0.00008233	
O		14.79999957		2.26882328		1.05400047		 0.00017061		-0.00002983		-0.00008233	
O		5.54999984		2.26882328		1.58100070		 0.00017061		-0.00002983		 0.00008233	
O		12.94999962		15.18366735		3.68899979		-0.00017061		 0.00002983		-0.00008233	
O		14.79999957		6.45742111		1.05400047		 0.00017061		 0.00002983		-0.00008233	
O		3.69999989		10.99506953		4.21600003		-0.00017061		-0.00002983		 0.00008233	
O		12.94999962		10.99506953		3.68899979		-0.00017061		-0.00002983		-0.00008233	
O		5.54999984		6.45742111		1.58100070		 0.00017061		 0.00002983		 0.00008233	
H		17.94500132		0.00000000		0.79049943		-0.00021568		 0.00022522		-0.00017791	
H		0.55499813		0.00000000		4.47949922		 0.00021568		-0.00022522		 0.00017791	
H		9.80499786		0.00000000		3.42550060		 0.00021568		-0.00022522		-0.00017791	
H		8.69500159		0.00000000		1.84449990		-0.00021568		 0.00022522		 0.00017791	
H		0.55499813		8.72624439		4.47949922		 0.00021568		 0.00022522		 0.00017791	
H		17.94500132		8.72624439		0.79049943		-0.00021568		-0.00022522		-0.00017791	
H		8.69500159		8.72624439		1.84449990		-0.00021568		-0.00022522		 0.00017791	
H		9.80499786		8.72624439		3.42550060		 0.00021568		 0.00022522		-0.00017791	
