# total energy = -92488.5560834 eV	

CRYSTAL	
PRIMVEC	
		18.49999946		0.00000000		0.00000000	
		0.00000000		16.55749951		0.00000000	
		0.00000000		0.00000000		5.27000235	
PRIMCOORD
   164 1	
Mg		2.40499993		2.81477307		2.00259904		 0.00003254		 0.00033266		 0.00028054	
Mg		16.09499953		13.74271720		3.26739960		-0.00003254		-0.00033266		-0.00028054	
Mg		6.84499980		13.74271720		4.63760021		-0.00003254		-0.00033266		 0.00028054	
Mg		11.65499966		2.81477307		0.63240028		 0.00003254		 0.00033266		-0.00028054	
Mg		16.09499953		11.09351912		3.26739960		-0.00003254		 0.00033266		-0.00028054	
Mg		2.40499993		5.46397114		2.00259904		 0.00003254		-0.00033266		 0.00028054	
Mg		11.65499966		5.46397114		0.63240028		 0.00003254		-0.00033266		-0.00028054	
Mg		6.84499980		11.09351912		4.63760021		-0.00003254		 0.00033266		 0.00028054	
Mg		2.40499993		1.32459811		4.58489927		-0.00040407		 0.00044380		-0.00002744	
Mg		16.09499953		15.23289215		0.68509938		 0.00040407		-0.00044380		 0.00002744	
Mg		6.84499980		15.23289215		1.94989994		 0.00040407		-0.00044380		-0.00002744	
Mg		11.65499966		1.32459811		3.32010055		-0.00040407		 0.00044380		 0.00002744	
Mg		16.09499953		9.60334417		0.68509938		 0.00040407		 0.00044380		 0.00002744	
Mg		2.40499993		6.95414610		4.58489927		-0.00040407		-0.00044380		-0.00002744	
Mg		11.65499966		6.95414610		3.32010055		-0.00040407		-0.00044380		 0.00002744	
Mg		6.84499980		9.60334417		1.94989994		 0.00040407		 0.00044380		-0.00002744	
Mg		2.40499993		16.22634027		2.00259904		 0.00010503		 0.00026123		-0.00037218	
Mg		16.09499953		0.33114999		3.26739960		-0.00010503		-0.00026123		 0.00037218	
Mg		6.84499980		0.33114999		4.63760021		-0.00010503		-0.00026123		-0.00037218	
Mg		11.65499966		16.22634027		0.63240028		 0.00010503		 0.00026123		 0.00037218	
Mg		16.09499953		7.94759422		3.26739960		-0.00010503		 0.00026123		 0.00037218	
Mg		2.40499993		8.60989420		2.00259904		 0.00010503		-0.00026123		-0.00037218	
Mg		11.65499966		8.60989420		0.63240028		 0.00010503		-0.00026123		 0.00037218	
Mg		6.84499980		7.94759422		4.63760021		-0.00010503		 0.00026123		-0.00037218	
Mg		2.40499993		4.13937303		4.58489927		-0.00038140		0.00000000		-0.00004545	
Mg		16.09499953		12.41811724		0.68509938		 0.00038140		0.00000000		 0.00004545	
Mg		6.84499980		12.41811724		1.94989994		 0.00038140		0.00000000		-0.00004545	
Mg		11.65499966		4.13937303		3.32010055		-0.00038140		0.00000000		 0.00004545	
Si		0.55499998		13.57714220		1.52829976		 0.00034086		 0.00013752		 0.00015099	
Si		17.94500132		2.98034806		3.74170074		-0.00034086		-0.00013752		-0.00015099	
Si		8.69499974		2.98034806		4.16329908		-0.00034086		-0.00013752		 0.00015099	
Si		9.80499786		13.57714220		1.10669957		 0.00034086		 0.00013752		-0.00015099	
Si		17.94500132		5.29839614		3.74170074		-0.00034086		 0.00013752		-0.00015099	
Si		0.55499998		11.25909412		1.52829976		 0.00034086		-0.00013752		 0.00015099	
Si		9.80499786		11.25909412		1.10669957		 0.00034086		-0.00013752		-0.00015099	
Si		8.69499974		5.29839614		4.16329908		-0.00034086		 0.00013752		 0.00015099	
Si		0.55499998		15.23289215		4.16329908		 0.00007645		 0.00043982		-0.00037499	
Si		17.94500132		1.32459811		1.10669957		-0.00007645		-0.00043982		 0.00037499	
Si		8.69499974		1.32459811		1.52829976		-0.00007645		-0.00043982		-0.00037499	
Si		9.80499786		15.23289215		3.74170074		 0.00007645		 0.00043982		 0.00037499	
Si		17.94500132		6.95414610		1.10669957		-0.00007645		 0.00043982		 0.00037499	
Si		0.55499998		9.60334417		4.16329908		 0.00007645		-0.00043982		-0.00037499	
Si		9.80499786		9.60334417		3.74170074		 0.00007645		-0.00043982		 0.00037499	
Si		8.69499974		6.95414610		1.52829976		-0.00007645		 0.00043982		-0.00037499	
Si		4.06999988		15.23289215		0.21080009		-0.00034771		-0.00004741		-0.00015941	
Si		14.42999773		1.32459811		5.05920040		 0.00034771		 0.00004741		 0.00015941	
Si		5.17999985		1.32459811		2.84579942		 0.00034771		 0.00004741		-0.00015941	
Si		13.32000146		15.23289215		2.42419923		-0.00034771		-0.00004741		 0.00015941	
Si		14.42999773		6.95414610		5.05920040		 0.00034771		-0.00004741		 0.00015941	
Si		4.06999988		9.60334417		0.21080009		-0.00034771		 0.00004741		-0.00015941	
Si		13.32000146		9.60334417		2.42419923		-0.00034771		 0.00004741		 0.00015941	
Si		5.17999985		6.95414610		2.84579942		 0.00034771		-0.00004741		-0.00015941	
Si		4.06999988		13.57714220		2.84579942		 0.00038090		-0.00028530		-0.00028694	
Si		14.42999773		2.98034806		2.42419923		-0.00038090		 0.00028530		 0.00028694	
Si		5.17999985		2.98034806		0.21080009		-0.00038090		 0.00028530		-0.00028694	
Si		13.32000146		13.57714220		5.05920040		 0.00038090		-0.00028530		 0.00028694	
Si		14.42999773		5.29839614		2.42419923		-0.00038090		-0.00028530		 0.00028694	
Si		4.06999988		11.25909412		2.84579942		 0.00038090		 0.00028530		-0.00028694	
Si		13.32000146		11.25909412		5.05920040		 0.00038090		 0.00028530		 0.00028694	
Si		5.17999985		5.29839614		0.21080009		-0.00038090		-0.00028530		-0.00028694	
O		1.10999997		1.15902312		1.05400047		 0.00035584		-0.00017983		-0.00012408	
O		17.38999949		15.39846715		4.21600003		-0.00035584		 0.00017983		 0.00012408	
O		8.13999976		15.39846715		3.68899979		-0.00035584		 0.00017983		-0.00012408	
O		10.35999970		1.15902312		1.58100070		 0.00035584		-0.00017983		 0.00012408	
O		17.38999949		9.43776917		4.21600003		-0.00035584		-0.00017983		 0.00012408	
O		1.10999997		7.11972109		1.05400047		 0.00035584		 0.00017983		-0.00012408	
O		10.35999970		7.11972109		1.58100070		 0.00035584		 0.00017983		 0.00012408	
O		8.13999976		9.43776917		3.68899979		-0.00035584		-0.00017983		-0.00012408	
O		1.10999997		2.98034806		3.68899979		-0.00019869		-0.00005390		-0.00007589	
O		17.38999949		13.57714220		1.58100070		 0.00019869		 0.00005390		 0.00007589	
O		8.13999976		13.57714220		1.05400047		 0.00019869		 0.00005390		-0.00007589	
O		10.35999970		2.98034806		4.21600003		-0.00019869		-0.00005390		 0.00007589	
O		17.38999949		11.25909412		1.58100070		 0.00019869		-0.00005390		 0.00007589	
O		1.10999997		5.29839614		3.68899979		-0.00019869		 0.00005390		-0.00007589	
O		10.35999970		5.29839614		4.21600003		-0.00019869		 0.00005390		 0.00007589	
O		8.13999976		11.25909412		1.05400047		 0.00019869		-0.00005390		-0.00007589	
O		1.10999997		12.41811724		1.05400047		-0.00022355		-0.00000000		-0.00026042	
O		17.38999949		4.13937303		4.21600003		 0.00022355		0.00000000		 0.00026042	
O		8.13999976		4.13937303		3.68899979		 0.00022355		0.00000000		-0.00026042	
O		10.35999970		12.41811724		1.58100070		-0.00022355		0.00000000		 0.00026042	
O		1.10999997		4.13937303		1.05400047		 0.00030652		0.00000000		-0.00010805	
O		17.38999949		12.41811724		4.21600003		-0.00030652		0.00000000		 0.00010805	
O		8.13999976		12.41811724		3.68899979		-0.00030652		-0.00000000		-0.00010805	
O		10.35999970		4.13937303		1.58100070		 0.00030652		0.00000000		 0.00010805	
O		1.10999997		0.00000000		3.68899979		 0.00067508		-0.00066046		-0.00074973	
O		17.38999949		0.00000000		1.58100070		-0.00067508		 0.00066046		 0.00074973	
O		8.13999976		0.00000000		1.05400047		-0.00067508		 0.00066046		-0.00074973	
O		10.35999970		0.00000000		4.21600003		 0.00067508		-0.00066046		 0.00074973	
O		17.38999949		8.27874421		1.58100070		-0.00067508		-0.00066046		 0.00074973	
O		1.10999997		8.27874421		3.68899979		 0.00067508		 0.00066046		-0.00074973	
O		10.35999970		8.27874421		4.21600003		 0.00067508		 0.00066046		 0.00074973	
O		8.13999976		8.27874421		1.05400047		-0.00067508		-0.00066046		-0.00074973	
O		0.92499997		14.40501718		0.26349919		 0.00012379		-0.00003821		 0.00002605	
O		17.57499948		2.15247309		5.00649945		-0.00012379		 0.00003821		-0.00002605	
O		8.32499976		2.15247309		2.89850036		-0.00012379		 0.00003821		 0.00002605	
O		10.17499970		14.40501718		2.37150013		 0.00012379		-0.00003821		-0.00002605	
O		17.57499948		6.12627112		5.00649945		-0.00012379		-0.00003821		-0.00002605	
O		0.92499997		10.43121914		0.26349919		 0.00012379		 0.00003821		 0.00002605	
O		10.17499970		10.43121914		2.37150013		 0.00012379		 0.00003821		-0.00002605	
O		8.32499976		6.12627112		2.89850036		-0.00012379		-0.00003821		 0.00002605	
O		0.92499997		14.40501718		2.84579942		 0.00021386		-0.00007929		 0.00092812	
O		17.57499948		2.15247309		2.42419923		-0.00021386		 0.00007929		-0.00092812	
O		8.32499976		2.15247309		0.21080009		-0.00021386		 0.00007929		 0.00092812	
O		10.17499970		14.40501718		5.05920040		 0.00021386		-0.00007929		-0.00092812	
O		17.57499948		6.12627112		2.42419923		-0.00021386		-0.00007929		-0.00092812	
O		0.92499997		10.43121914		2.84579942		 0.00021386		 0.00007929		 0.00092812	
O		10.17499970		10.43121914		5.05920040		 0.00021386		 0.00007929		-0.00092812	
O		8.32499976		6.12627112		0.21080009		-0.00021386		-0.00007929		 0.00092812	
O		3.51499990		2.98034806		0.26349919		-0.00038759		 0.00002231		 0.00030948	
O		14.98499956		13.57714220		5.00649945		 0.00038759		-0.00002231		-0.00030948	
O		5.73499983		13.57714220		2.89850036		 0.00038759		-0.00002231		 0.00030948	
O		12.76499963		2.98034806		2.37150013		-0.00038759		 0.00002231		-0.00030948	
O		14.98499956		11.25909412		5.00649945		 0.00038759		 0.00002231		-0.00030948	
O		3.51499990		5.29839614		0.26349919		-0.00038759		-0.00002231		 0.00030948	
O		12.76499963		5.29839614		2.37150013		-0.00038759		-0.00002231		-0.00030948	
O		5.73499983		11.25909412		2.89850036		 0.00038759		 0.00002231		 0.00030948	
O		3.51499990		1.15902312		2.95119946		 0.00024344		-0.00014157		 0.00031549	
O		14.98499956		15.39846715		2.31879918		-0.00024344		 0.00014157		-0.00031549	
O		5.73499983		15.39846715		0.31620014		-0.00024344		 0.00014157		 0.00031549	
O		12.76499963		1.15902312		4.95380035		 0.00024344		-0.00014157		-0.00031549	
O		14.98499956		9.43776917		2.31879918		-0.00024344		-0.00014157		-0.00031549	
O		3.51499990		7.11972109		2.95119946		 0.00024344		 0.00014157		 0.00031549	
O		12.76499963		7.11972109		4.95380035		 0.00024344		 0.00014157		-0.00031549	
O		5.73499983		9.43776917		0.31620014		-0.00024344		-0.00014157		 0.00031549	
O		3.51499990		0.00000000		0.26349919		 0.00014258		 0.00037079		 0.00005255	
O		14.98499956		0.00000000		5.00649945		-0.00014258		-0.00037079		-0.00005255	
O		5.73499983		0.00000000		2.89850036		-0.00014258		-0.00037079		 0.00005255	
O		12.76499963		0.00000000		2.37150013		 0.00014258		 0.00037079		-0.00005255	
O		14.98499956		8.27874421		5.00649945		-0.00014258		 0.00037079		-0.00005255	
O		3.51499990		8.27874421		0.26349919		 0.00014258		-0.00037079		 0.00005255	
O		12.76499963		8.27874421		2.37150013		 0.00014258		-0.00037079		-0.00005255	
O		5.73499983		8.27874421		2.89850036		-0.00014258		 0.00037079		 0.00005255	
O		3.51499990		12.41811724		2.37150013		-0.00050549		0.00000000		-0.00019611	
O		14.98499956		4.13937303		2.89850036		 0.00050549		0.00000000		 0.00019611	
O		5.73499983		4.13937303		5.00649945		 0.00050549		-0.00000000		-0.00019611	
O		12.76499963		12.41811724		0.26349919		-0.00050549		-0.00000000		 0.00019611	
O		3.51499990		4.13937303		2.89850036		-0.00021929		-0.00000000		-0.00061184	
O		14.98499956		12.41811724		2.37150013		 0.00021929		0.00000000		 0.00061184	
O		5.73499983		12.41811724		0.26349919		 0.00021929		0.00000000		-0.00061184	
O		12.76499963		4.13937303		5.00649945		-0.00021929		0.00000000		 0.00061184	
O		3.69999989		14.40501718		1.58100070		 0.00032332		 0.00016822		 0.00019594	
O		14.79999957		2.15247309		3.68899979		-0.00032332		-0.00016822		-0.00019594	
O		5.54999984		2.15247309		4.21600003		-0.00032332		-0.00016822		 0.00019594	
O		12.94999962		14.40501718		1.05400047		 0.00032332		 0.00016822		-0.00019594	
O		14.79999957		6.12627112		3.68899979		-0.00032332		 0.00016822		-0.00019594	
O		3.69999989		10.43121914		1.58100070		 0.00032332		-0.00016822		 0.00019594	
O		12.94999962		10.43121914		1.05400047		 0.00032332		-0.00016822		-0.00019594	
O		5.54999984		6.12627112		4.21600003		-0.00032332		 0.00016822		 0.00019594	
O		3.69999989		14.40501718		4.21600003		-0.00013022		 0.00043285		-0.00021655	
O		14.79999957		2.15247309		1.05400047		 0.00013022		-0.00043285		 0.00021655	
O		5.54999984		2.15247309		1.58100070		 0.00013022		-0.00043285		-0.00021655	
O		12.94999962		14.40501718		3.68899979		-0.00013022		 0.00043285		 0.00021655	
O		14.79999957		6.12627112		1.05400047		 0.00013022		 0.00043285		 0.00021655	
O		3.69999989		10.43121914		4.21600003		-0.00013022		-0.00043285		-0.00021655	
O		12.94999962		10.43121914		3.68899979		-0.00013022		-0.00043285		 0.00021655	
O		5.54999984		6.12627112		1.58100070		 0.00013022		 0.00043285		-0.00021655	
H		17.94500132		0.00000000		0.79049943		 0.00073192		-0.00022978		-0.00054066	
H		0.55499813		0.00000000		4.47949922		-0.00073192		 0.00022978		 0.00054066	
H		9.80499786		0.00000000		3.42550060		-0.00073192		 0.00022978		-0.00054066	
H		8.69500159		0.00000000		1.84449990		 0.00073192		-0.00022978		 0.00054066	
H		0.55499813		8.27874421		4.47949922		-0.00073192		-0.00022978		 0.00054066	
H		17.94500132		8.27874421		0.79049943		 0.00073192		 0.00022978		-0.00054066	
H		8.69500159		8.27874421		1.84449990		 0.00073192		 0.00022978		 0.00054066	
H		9.80499786		8.27874421		3.42550060		-0.00073192		-0.00022978		-0.00054066	
