# total energy = -92494.0782959 eV	

CRYSTAL	
PRIMVEC	
		18.49999946		0.00000000		0.00000000	
		0.00000000		19.68999342		0.00000000	
		0.00000000		0.00000000		5.27000235	
PRIMCOORD
   164 1	
Mg		2.40499993		3.34729740		2.00259904		 0.00025940		-0.00014467		 0.00050132	
Mg		16.09499953		16.34269047		3.26739960		-0.00025940		 0.00014467		-0.00050132	
Mg		6.84499980		16.34269047		4.63760021		-0.00025940		 0.00014467		 0.00050132	
Mg		11.65499966		3.34729740		0.63240028		 0.00025940		-0.00014467		-0.00050132	
Mg		16.09499953		13.19229226		3.26739960		-0.00025940		-0.00014467		-0.00050132	
Mg		2.40499993		6.49769561		2.00259904		 0.00025940		 0.00014467		 0.00050132	
Mg		11.65499966		6.49769561		0.63240028		 0.00025940		 0.00014467		-0.00050132	
Mg		6.84499980		13.19229226		4.63760021		-0.00025940		-0.00014467		 0.00050132	
Mg		2.40499993		1.57519910		4.58489927		-0.00009200		-0.00011893		 0.00000006	
Mg		16.09499953		18.11478877		0.68509938		 0.00009200		 0.00011893		-0.00000006	
Mg		6.84499980		18.11478877		1.94989994		 0.00009200		 0.00011893		 0.00000006	
Mg		11.65499966		1.57519910		3.32010055		-0.00009200		-0.00011893		-0.00000006	
Mg		16.09499953		11.42019211		0.68509938		 0.00009200		-0.00011893		-0.00000006	
Mg		2.40499993		8.26979576		4.58489927		-0.00009200		 0.00011893		 0.00000006	
Mg		11.65499966		8.26979576		3.32010055		-0.00009200		 0.00011893		-0.00000006	
Mg		6.84499980		11.42019211		1.94989994		 0.00009200		-0.00011893		 0.00000006	
Mg		2.40499993		19.29618948		2.00259904		-0.00062936		-0.00004847		-0.00003113	
Mg		16.09499953		0.39380024		3.26739960		 0.00062936		 0.00004847		 0.00003113	
Mg		6.84499980		0.39380024		4.63760021		 0.00062936		 0.00004847		-0.00003113	
Mg		11.65499966		19.29618948		0.63240028		-0.00062936		-0.00004847		 0.00003113	
Mg		16.09499953		9.45119462		3.26739960		 0.00062936		-0.00004847		 0.00003113	
Mg		2.40499993		10.23879325		2.00259904		-0.00062936		 0.00004847		-0.00003113	
Mg		11.65499966		10.23879325		0.63240028		-0.00062936		 0.00004847		 0.00003113	
Mg		6.84499980		9.45119462		4.63760021		 0.00062936		-0.00004847		-0.00003113	
Mg		2.40499993		4.92249651		4.58489927		 0.00004354		-0.00000000		 0.00036055	
Mg		16.09499953		14.76749137		0.68509938		-0.00004354		0.00000000		-0.00036055	
Mg		6.84499980		14.76749137		1.94989994		-0.00004354		0.00000000		 0.00036055	
Mg		11.65499966		4.92249651		3.32010055		 0.00004354		0.00000000		-0.00036055	
Si		0.55499998		16.14579128		1.52829976		-0.00036531		-0.00001688		 0.00006216	
Si		17.94500132		3.54419845		3.74170074		 0.00036531		 0.00001688		-0.00006216	
Si		8.69499974		3.54419845		4.16329908		 0.00036531		 0.00001688		 0.00006216	
Si		9.80499786		16.14579128		1.10669957		-0.00036531		-0.00001688		-0.00006216	
Si		17.94500132		6.30079642		3.74170074		 0.00036531		-0.00001688		-0.00006216	
Si		0.55499998		13.38919331		1.52829976		-0.00036531		 0.00001688		 0.00006216	
Si		9.80499786		13.38919331		1.10669957		-0.00036531		 0.00001688		-0.00006216	
Si		8.69499974		6.30079642		4.16329908		 0.00036531		-0.00001688		 0.00006216	
Si		0.55499998		18.11478877		4.16329908		 0.00015755		-0.00001250		 0.00014355	
Si		17.94500132		1.57519910		1.10669957		-0.00015755		 0.00001250		-0.00014355	
Si		8.69499974		1.57519910		1.52829976		-0.00015755		 0.00001250		 0.00014355	
Si		9.80499786		18.11478877		3.74170074		 0.00015755		-0.00001250		-0.00014355	
Si		17.94500132		8.26979576		1.10669957		-0.00015755		-0.00001250		-0.00014355	
Si		0.55499998		11.42019211		4.16329908		 0.00015755		 0.00001250		 0.00014355	
Si		9.80499786		11.42019211		3.74170074		 0.00015755		 0.00001250		-0.00014355	
Si		8.69499974		8.26979576		1.52829976		-0.00015755		-0.00001250		 0.00014355	
Si		4.06999988		18.11478877		0.21080009		-0.00002371		-0.00003960		 0.00004993	
Si		14.42999773		1.57519910		5.05920040		 0.00002371		 0.00003960		-0.00004993	
Si		5.17999985		1.57519910		2.84579942		 0.00002371		 0.00003960		 0.00004993	
Si		13.32000146		18.11478877		2.42419923		-0.00002371		-0.00003960		-0.00004993	
Si		14.42999773		8.26979576		5.05920040		 0.00002371		-0.00003960		-0.00004993	
Si		4.06999988		11.42019211		0.21080009		-0.00002371		 0.00003960		 0.00004993	
Si		13.32000146		11.42019211		2.42419923		-0.00002371		 0.00003960		-0.00004993	
Si		5.17999985		8.26979576		2.84579942		 0.00002371		-0.00003960		 0.00004993	
Si		4.06999988		16.14579128		2.84579942		 0.00034274		-0.00008268		-0.00006137	
Si		14.42999773		3.54419845		2.42419923		-0.00034274		 0.00008268		 0.00006137	
Si		5.17999985		3.54419845		0.21080009		-0.00034274		 0.00008268		-0.00006137	
Si		13.32000146		16.14579128		5.05920040		 0.00034274		-0.00008268		 0.00006137	
Si		14.42999773		6.30079642		2.42419923		-0.00034274		-0.00008268		 0.00006137	
Si		4.06999988		13.38919331		2.84579942		 0.00034274		 0.00008268		-0.00006137	
Si		13.32000146		13.38919331		5.05920040		 0.00034274		 0.00008268		 0.00006137	
Si		5.17999985		6.30079642		0.21080009		-0.00034274		-0.00008268		-0.00006137	
O		1.10999997		1.37829806		1.05400047		-0.00000107		 0.00020792		 0.00009921	
O		17.38999949		18.31168981		4.21600003		 0.00000107		-0.00020792		-0.00009921	
O		8.13999976		18.31168981		3.68899979		 0.00000107		-0.00020792		 0.00009921	
O		10.35999970		1.37829806		1.58100070		-0.00000107		 0.00020792		-0.00009921	
O		17.38999949		11.22329292		4.21600003		 0.00000107		 0.00020792		-0.00009921	
O		1.10999997		8.46669495		1.05400047		-0.00000107		-0.00020792		 0.00009921	
O		10.35999970		8.46669495		1.58100070		-0.00000107		-0.00020792		-0.00009921	
O		8.13999976		11.22329292		3.68899979		 0.00000107		 0.00020792		 0.00009921	
O		1.10999997		3.54419845		3.68899979		 0.00060516		-0.00008574		 0.00002956	
O		17.38999949		16.14579128		1.58100070		-0.00060516		 0.00008574		-0.00002956	
O		8.13999976		16.14579128		1.05400047		-0.00060516		 0.00008574		 0.00002956	
O		10.35999970		3.54419845		4.21600003		 0.00060516		-0.00008574		-0.00002956	
O		17.38999949		13.38919331		1.58100070		-0.00060516		-0.00008574		-0.00002956	
O		1.10999997		6.30079642		3.68899979		 0.00060516		 0.00008574		 0.00002956	
O		10.35999970		6.30079642		4.21600003		 0.00060516		 0.00008574		-0.00002956	
O		8.13999976		13.38919331		1.05400047		-0.00060516		-0.00008574		 0.00002956	
O		1.10999997		14.76749137		1.05400047		 0.00015282		0.00000000		-0.00039914	
O		17.38999949		4.92249651		4.21600003		-0.00015282		0.00000000		 0.00039914	
O		8.13999976		4.92249651		3.68899979		-0.00015282		0.00000000		-0.00039914	
O		10.35999970		14.76749137		1.58100070		 0.00015282		0.00000000		 0.00039914	
O		1.10999997		4.92249651		1.05400047		-0.00030392		0.00000000		-0.00038863	
O		17.38999949		14.76749137		4.21600003		 0.00030392		0.00000000		 0.00038863	
O		8.13999976		14.76749137		3.68899979		 0.00030392		0.00000000		-0.00038863	
O		10.35999970		4.92249651		1.58100070		-0.00030392		0.00000000		 0.00038863	
O		1.10999997		0.00000000		3.68899979		 0.00042329		-0.00028175		-0.00002627	
O		17.38999949		0.00000000		1.58100070		-0.00042329		 0.00028175		 0.00002627	
O		8.13999976		0.00000000		1.05400047		-0.00042329		 0.00028175		-0.00002627	
O		10.35999970		0.00000000		4.21600003		 0.00042329		-0.00028175		 0.00002627	
O		17.38999949		9.84499486		1.58100070		-0.00042329		-0.00028175		 0.00002627	
O		1.10999997		9.84499486		3.68899979		 0.00042329		 0.00028175		-0.00002627	
O		10.35999970		9.84499486		4.21600003		 0.00042329		 0.00028175		 0.00002627	
O		8.13999976		9.84499486		1.05400047		-0.00042329		-0.00028175		-0.00002627	
O		0.92499997		17.13029095		0.26349919		 0.00051453		-0.00035381		 0.00002182	
O		17.57499948		2.55969877		5.00649945		-0.00051453		 0.00035381		-0.00002182	
O		8.32499976		2.55969877		2.89850036		-0.00051453		 0.00035381		 0.00002182	
O		10.17499970		17.13029095		2.37150013		 0.00051453		-0.00035381		-0.00002182	
O		17.57499948		7.28529609		5.00649945		-0.00051453		-0.00035381		-0.00002182	
O		0.92499997		12.40469179		0.26349919		 0.00051453		 0.00035381		 0.00002182	
O		10.17499970		12.40469179		2.37150013		 0.00051453		 0.00035381		-0.00002182	
O		8.32499976		7.28529609		2.89850036		-0.00051453		-0.00035381		 0.00002182	
O		0.92499997		17.13029095		2.84579942		 0.00014954		 0.00007349		 0.00009541	
O		17.57499948		2.55969877		2.42419923		-0.00014954		-0.00007349		-0.00009541	
O		8.32499976		2.55969877		0.21080009		-0.00014954		-0.00007349		 0.00009541	
O		10.17499970		17.13029095		5.05920040		 0.00014954		 0.00007349		-0.00009541	
O		17.57499948		7.28529609		2.42419923		-0.00014954		 0.00007349		-0.00009541	
O		0.92499997		12.40469179		2.84579942		 0.00014954		-0.00007349		 0.00009541	
O		10.17499970		12.40469179		5.05920040		 0.00014954		-0.00007349		-0.00009541	
O		8.32499976		7.28529609		0.21080009		-0.00014954		 0.00007349		 0.00009541	
O		3.51499990		3.54419845		0.26349919		-0.00058631		-0.00004621		-0.00009090	
O		14.98499956		16.14579128		5.00649945		 0.00058631		 0.00004621		 0.00009090	
O		5.73499983		16.14579128		2.89850036		 0.00058631		 0.00004621		-0.00009090	
O		12.76499963		3.54419845		2.37150013		-0.00058631		-0.00004621		 0.00009090	
O		14.98499956		13.38919331		5.00649945		 0.00058631		-0.00004621		 0.00009090	
O		3.51499990		6.30079642		0.26349919		-0.00058631		 0.00004621		-0.00009090	
O		12.76499963		6.30079642		2.37150013		-0.00058631		 0.00004621		 0.00009090	
O		5.73499983		13.38919331		2.89850036		 0.00058631		-0.00004621		-0.00009090	
O		3.51499990		1.37829806		2.95119946		-0.00011846		 0.00006040		 0.00031708	
O		14.98499956		18.31168981		2.31879918		 0.00011846		-0.00006040		-0.00031708	
O		5.73499983		18.31168981		0.31620014		 0.00011846		-0.00006040		 0.00031708	
O		12.76499963		1.37829806		4.95380035		-0.00011846		 0.00006040		-0.00031708	
O		14.98499956		11.22329292		2.31879918		 0.00011846		 0.00006040		-0.00031708	
O		3.51499990		8.46669495		2.95119946		-0.00011846		-0.00006040		 0.00031708	
O		12.76499963		8.46669495		4.95380035		-0.00011846		-0.00006040		-0.00031708	
O		5.73499983		11.22329292		0.31620014		 0.00011846		 0.00006040		 0.00031708	
O		3.51499990		0.00000000		0.26349919		-0.00042542		-0.00010843		 0.00049359	
O		14.98499956		0.00000000		5.00649945		 0.00042542		 0.00010843		-0.00049359	
O		5.73499983		0.00000000		2.89850036		 0.00042542		 0.00010843		 0.00049359	
O		12.76499963		0.00000000		2.37150013		-0.00042542		-0.00010843		-0.00049359	
O		14.98499956		9.84499486		5.00649945		 0.00042542		-0.00010843		-0.00049359	
O		3.51499990		9.84499486		0.26349919		-0.00042542		 0.00010843		 0.00049359	
O		12.76499963		9.84499486		2.37150013		-0.00042542		 0.00010843		-0.00049359	
O		5.73499983		9.84499486		2.89850036		 0.00042542		-0.00010843		 0.00049359	
O		3.51499990		14.76749137		2.37150013		-0.00033092		0.00000000		 0.00054415	
O		14.98499956		4.92249651		2.89850036		 0.00033092		-0.00000000		-0.00054415	
O		5.73499983		4.92249651		5.00649945		 0.00033092		0.00000000		 0.00054415	
O		12.76499963		14.76749137		0.26349919		-0.00033092		0.00000000		-0.00054415	
O		3.51499990		4.92249651		2.89850036		-0.00023284		-0.00000000		 0.00019023	
O		14.98499956		14.76749137		2.37150013		 0.00023284		0.00000000		-0.00019023	
O		5.73499983		14.76749137		0.26349919		 0.00023284		0.00000000		 0.00019023	
O		12.76499963		4.92249651		5.00649945		-0.00023284		0.00000000		-0.00019023	
O		3.69999989		17.13029095		1.58100070		-0.00000650		 0.00007644		 0.00012281	
O		14.79999957		2.55969877		3.68899979		 0.00000650		-0.00007644		-0.00012281	
O		5.54999984		2.55969877		4.21600003		 0.00000650		-0.00007644		 0.00012281	
O		12.94999962		17.13029095		1.05400047		-0.00000650		 0.00007644		-0.00012281	
O		14.79999957		7.28529609		3.68899979		 0.00000650		 0.00007644		-0.00012281	
O		3.69999989		12.40469179		1.58100070		-0.00000650		-0.00007644		 0.00012281	
O		12.94999962		12.40469179		1.05400047		-0.00000650		-0.00007644		-0.00012281	
O		5.54999984		7.28529609		4.21600003		 0.00000650		 0.00007644		 0.00012281	
O		3.69999989		17.13029095		4.21600003		-0.00001834		 0.00009590		-0.00013896	
O		14.79999957		2.55969877		1.05400047		 0.00001834		-0.00009590		 0.00013896	
O		5.54999984		2.55969877		1.58100070		 0.00001834		-0.00009590		-0.00013896	
O		12.94999962		17.13029095		3.68899979		-0.00001834		 0.00009590		 0.00013896	
O		14.79999957		7.28529609		1.05400047		 0.00001834		 0.00009590		 0.00013896	
O		3.69999989		12.40469179		4.21600003		-0.00001834		-0.00009590		-0.00013896	
O		12.94999962		12.40469179		3.68899979		-0.00001834		-0.00009590		 0.00013896	
O		5.54999984		7.28529609		1.58100070		 0.00001834		 0.00009590		-0.00013896	
H		17.94500132		0.00000000		0.79049943		 0.00062440		-0.00003555		-0.00088365	
H		0.55499813		0.00000000		4.47949922		-0.00062440		 0.00003555		 0.00088365	
H		9.80499786		0.00000000		3.42550060		-0.00062440		 0.00003555		-0.00088365	
H		8.69500159		0.00000000		1.84449990		 0.00062440		-0.00003555		 0.00088365	
H		0.55499813		9.84499486		4.47949922		-0.00062440		-0.00003555		 0.00088365	
H		17.94500132		9.84499486		0.79049943		 0.00062440		 0.00003555		-0.00088365	
H		8.69500159		9.84499486		1.84449990		 0.00062440		 0.00003555		 0.00088365	
H		9.80499786		9.84499486		3.42550060		-0.00062440		-0.00003555		-0.00088365	
