# total energy = -49440.5750078 eV	

CRYSTAL	
PRIMVEC	
		14.02399962		0.00000000		0.00000000	
		0.00000000		5.10899916		0.00000000	
		0.00000000		0.00000000		7.85969449	
PRIMCOORD
   70 1	
Mg		2.42755433		1.67524108		0.04165549		-0.00030983		-0.00007069		-0.00002050	
Mg		11.59644529		3.43375948		0.04165549		 0.00030983		 0.00007069		-0.00002050	
Mg		9.43955414		0.87925850		3.97150554		-0.00030983		 0.00007069		-0.00002050	
Mg		4.58444548		4.22974066		3.97150554		 0.00030983		-0.00007069		-0.00002050	
Mg		2.48925993		4.27010173		1.37701933		 0.00059366		-0.00028628		-0.00003929	
Mg		11.53473969		0.83889743		1.37701933		-0.00059366		 0.00028628		-0.00003929	
Mg		9.50125974		3.39339841		5.30686938		 0.00059366		 0.00028628		-0.00003929	
Mg		4.52273988		1.71560215		5.30686938		-0.00059366		-0.00028628		-0.00003929	
Mg		4.54377588		1.76822441		2.54811445		-0.00020633		-0.00007111		-0.00052388	
Mg		9.48022374		3.34077475		2.54811445		 0.00020633		 0.00007111		-0.00052388	
Mg		11.55577569		0.78627517		6.47796450		-0.00020633		 0.00007111		-0.00052388	
Mg		2.46822393		4.32272539		6.47796450		 0.00020633		-0.00007111		-0.00052388	
Mg		0.00000000		2.55449958		6.51254628		0.00000000		0.00000000		-0.00083342	
Mg		7.01199981		0.00000000		2.58269623		0.00000000		0.00000000		-0.00083342	
Mg		0.00000000		2.55449958		1.46976424		0.00000000		0.00000000		 0.00052690	
Mg		7.01199981		0.00000000		5.39961429		0.00000000		0.00000000		 0.00052690	
Mg		0.00000000		0.00000000		5.20705076		0.00000000		0.00000000		 0.00002879	
Mg		7.01199981		2.55449958		1.27720071		0.00000000		0.00000000		 0.00002879	
Mg		0.00000000		0.00000000		2.71552595		0.00000000		0.00000000		 0.00029097	
Mg		7.01199981		2.55449958		6.64537600		0.00000000		0.00000000		 0.00029097	
Si		0.00000000		0.00000000		0.06052057		0.00000000		0.00000000		-0.00000310	
Si		7.01199981		2.55449958		3.99036922		0.00000000		0.00000000		-0.00000310	
Si		5.28143826		0.07203708		0.04008340		-0.00038043		-0.00018149		-0.00036296	
Si		8.74256136		5.03696348		0.04008340		 0.00038043		 0.00018149		-0.00036296	
Si		12.29343807		2.48246250		3.96993345		-0.00038043		 0.00018149		-0.00036296	
Si		1.73056155		2.62653666		3.96993345		 0.00038043		-0.00018149		-0.00036296	
O		5.82416704		3.62125895		7.80939742		-0.00006561		 0.00008525		-0.00019336	
O		8.19983258		1.48774161		7.80939742		 0.00006561		-0.00008525		-0.00019336	
O		12.83616825		4.04224119		3.87954737		-0.00006561		-0.00008525		-0.00019336	
O		1.18783277		1.06675937		3.87954737		 0.00006561		 0.00008525		-0.00019336	
O		1.09807917		3.54104728		0.03929805		-0.00051464		 0.00009371		-0.00026526	
O		12.92592045		1.56795188		0.03929805		 0.00051464		-0.00009371		-0.00026526	
O		8.11007898		4.12245145		3.96914810		-0.00051464		-0.00009371		-0.00026526	
O		5.91392064		0.98654770		3.96914810		 0.00051464		 0.00009371		-0.00026526	
O		3.49898791		0.11239815		2.71238177		 0.00060544		-0.00025417		 0.00017180	
O		10.52501171		4.99660241		2.71238177		-0.00060544		 0.00025417		 0.00017180	
O		10.51098912		2.44210143		6.64223182		 0.00060544		 0.00025417		 0.00017180	
O		3.51301190		2.66689773		6.64223182		-0.00060544		-0.00025417		 0.00017180	
O		3.57892470		2.61580830		1.27327118		-0.00030282		-0.00010811		 0.00045092	
O		10.44507492		2.49319226		1.27327118		 0.00030282		 0.00010811		 0.00045092	
O		10.59092451		5.04769184		5.20312123		-0.00030282		 0.00010811		 0.00045092	
O		3.43307511		0.06130732		5.20312123		 0.00030282		-0.00010811		 0.00045092	
O		1.06582397		0.73569622		1.20331947		-0.00003281		-0.00030884		 0.00001537	
O		12.95817705		4.37330434		1.20331947		 0.00003281		 0.00030884		 0.00001537	
O		8.07782378		1.81880336		5.13316952		-0.00003281		 0.00030884		 0.00001537	
O		5.94617584		3.29019579		5.13316952		 0.00003281		-0.00030884		 0.00001537	
O		6.02751504		3.30552262		2.84442473		-0.00015266		-0.00054502		-0.00017965	
O		7.99648318		1.80347653		2.84442473		 0.00015266		 0.00054502		-0.00017965	
O		13.03951625		4.35797752		6.77427479		-0.00015266		 0.00054502		-0.00017965	
O		0.98448477		0.75102304		6.77427479		 0.00015266		-0.00054502		-0.00017965	
O		5.81294784		0.78167670		1.25676634		-0.00025942		 0.00018707		-0.00040915	
O		8.21105178		4.32732245		1.25676634		 0.00025942		-0.00018707		-0.00040915	
O		12.82494765		1.77282288		5.18661639		-0.00025942		-0.00018707		-0.00040915	
O		1.19905197		3.33617628		5.18661639		 0.00025942		 0.00018707		-0.00040915	
O		1.24673357		3.49966526		2.73438963		-0.00017449		 0.00046305		 0.00028457	
O		12.77726605		1.60933530		2.73438963		 0.00017449		-0.00046305		 0.00028457	
O		8.25873338		4.16383487		6.66423968		-0.00017449		-0.00046305		 0.00028457	
O		5.76526624		0.94516428		6.66423968		 0.00017449		 0.00046305		 0.00028457	
O		3.64343510		0.02452237		0.05501755		-0.00021989		-0.00035179		 0.00058188	
O		10.38056592		5.08447679		0.05501755		 0.00021989		 0.00035179		 0.00058188	
O		10.65543491		2.52997721		3.98486760		-0.00021989		 0.00035179		 0.00058188	
O		3.36856471		2.57902335		3.98486760		 0.00021989		-0.00035179		 0.00058188	
H		4.20719989		3.06539949		0.78596945		-0.00003872		-0.00010239		 0.00001267	
H		9.81679973		2.04359966		0.78596945		 0.00003872		 0.00010239		 0.00001267	
H		11.21919970		4.59809924		4.71581950		-0.00003872		 0.00010239		 0.00001267	
H		2.80479992		0.51089992		4.71581950		 0.00003872		-0.00010239		 0.00001267	
H		3.78647990		0.91961957		3.53686533		-0.00016283		-0.00006676		 0.00047174	
H		10.23751972		4.18937959		3.53686533		 0.00016283		 0.00006676		 0.00047174	
H		10.79847971		1.63488001		7.46671538		-0.00016283		 0.00006676		 0.00047174	
H		3.22551991		3.47412055		7.46671538		 0.00016283		-0.00006676		 0.00047174	
