# total energy = -49446.2407532 eV	

CRYSTAL	
PRIMVEC	
		14.02399962		0.00000000		0.00000000	
		0.00000000		5.10899916		0.00000000	
		0.00000000		0.00000000		8.29634574	
PRIMCOORD
   70 1	
Mg		2.42755433		1.67524108		0.04397085		-0.00029519		-0.00019646		 0.00004833	
Mg		11.59644529		3.43375948		0.04397085		 0.00029519		 0.00019646		 0.00004833	
Mg		9.43955414		0.87925850		4.19214512		-0.00029519		 0.00019646		 0.00004833	
Mg		4.58444548		4.22974066		4.19214512		 0.00029519		-0.00019646		 0.00004833	
Mg		2.48925993		4.27010173		1.45352025		 0.00046247		-0.00019296		-0.00002830	
Mg		11.53473969		0.83889743		1.45352025		-0.00046247		 0.00019296		-0.00002830	
Mg		9.50125974		3.39339841		5.60169452		 0.00046247		 0.00019296		-0.00002830	
Mg		4.52273988		1.71560215		5.60169452		-0.00046247		-0.00019296		-0.00002830	
Mg		4.54377588		1.76822441		2.68967691		 0.00036223		-0.00014597		-0.00030422	
Mg		9.48022374		3.34077475		2.68967691		-0.00036223		 0.00014597		-0.00030422	
Mg		11.55577569		0.78627517		6.83785119		 0.00036223		 0.00014597		-0.00030422	
Mg		2.46822393		4.32272539		6.83785119		-0.00036223		-0.00014597		-0.00030422	
Mg		0.00000000		2.55449958		6.87435425		0.00000000		0.00000000		-0.00051177	
Mg		7.01199981		0.00000000		2.72617998		0.00000000		0.00000000		-0.00051177	
Mg		0.00000000		2.55449958		1.55141758		0.00000000		0.00000000		 0.00076032	
Mg		7.01199981		0.00000000		5.69959326		0.00000000		0.00000000		 0.00076032	
Mg		0.00000000		0.00000000		5.49633221		0.00000000		0.00000000		 0.00005803	
Mg		7.01199981		2.55449958		1.34815653		0.00000000		0.00000000		 0.00005803	
Mg		0.00000000		0.00000000		2.86638912		0.00000000		0.00000000		-0.00016026	
Mg		7.01199981		2.55449958		7.01456340		0.00000000		0.00000000		-0.00016026	
Si		0.00000000		0.00000000		0.06388212		0.00000000		0.00000000		-0.00000885	
Si		7.01199981		2.55449958		4.21205640		0.00000000		0.00000000		-0.00000885	
Si		5.28143826		0.07203708		0.04231041		-0.00024009		-0.00006704		-0.00030570	
Si		8.74256136		5.03696348		0.04231041		 0.00024009		 0.00006704		-0.00030570	
Si		12.29343807		2.48246250		4.19048608		-0.00024009		 0.00006704		-0.00030570	
Si		1.73056155		2.62653666		4.19048608		 0.00024009		-0.00006704		-0.00030570	
O		5.82416704		3.62125895		8.24325228		 0.00000062		 0.00031225		-0.00035786	
O		8.19983258		1.48774161		8.24325228		-0.00000062		-0.00031225		-0.00035786	
O		12.83616825		4.04224119		4.09507801		 0.00000062		-0.00031225		-0.00035786	
O		1.18783277		1.06675937		4.09507801		-0.00000062		 0.00031225		-0.00035786	
O		1.09807917		3.54104728		0.04148159		-0.00015564		 0.00004553		 0.00015493	
O		12.92592045		1.56795188		0.04148159		 0.00015564		-0.00004553		 0.00015493	
O		8.11007898		4.12245145		4.18965726		-0.00015564		-0.00004553		 0.00015493	
O		5.91392064		0.98654770		4.18965726		 0.00015564		 0.00004553		 0.00015493	
O		3.49898791		0.11239815		2.86306964		 0.00037794		-0.00076436		 0.00020587	
O		10.52501171		4.99660241		2.86306964		-0.00037794		 0.00076436		 0.00020587	
O		10.51098912		2.44210143		7.01124532		 0.00037794		 0.00076436		 0.00020587	
O		3.51301190		2.66689773		7.01124532		-0.00037794		-0.00076436		 0.00020587	
O		3.57892470		2.61580830		1.34400964		-0.00009944		-0.00014783		 0.00032420	
O		10.44507492		2.49319226		1.34400964		 0.00009944		 0.00014783		 0.00032420	
O		10.59092451		5.04769184		5.49218391		-0.00009944		 0.00014783		 0.00032420	
O		3.43307511		0.06130732		5.49218391		 0.00009944		-0.00014783		 0.00032420	
O		1.06582397		0.73569622		1.27017047		-0.00014203		-0.00018478		-0.00021573	
O		12.95817705		4.37330434		1.27017047		 0.00014203		 0.00018478		-0.00021573	
O		8.07782378		1.81880336		5.41834615		-0.00014203		 0.00018478		-0.00021573	
O		5.94617584		3.29019579		5.41834615		 0.00014203		-0.00018478		-0.00021573	
O		6.02751504		3.30552262		3.00244857		-0.00037610		-0.00017230		-0.00023065	
O		7.99648318		1.80347653		3.00244857		 0.00037610		 0.00017230		-0.00023065	
O		13.03951625		4.35797752		7.15062424		-0.00037610		 0.00017230		-0.00023065	
O		0.98448477		0.75102304		7.15062424		 0.00037610		-0.00017230		-0.00023065	
O		5.81294784		0.78167670		1.32658622		 0.00007784		-0.00023040		-0.00021524	
O		8.21105178		4.32732245		1.32658622		-0.00007784		 0.00023040		-0.00021524	
O		12.82494765		1.77282288		5.47476049		 0.00007784		 0.00023040		-0.00021524	
O		1.19905197		3.33617628		5.47476049		-0.00007784		-0.00023040		-0.00021524	
O		1.24673357		3.49966526		2.88630040		-0.00011439		 0.00017502		 0.00023160	
O		12.77726605		1.60933530		2.88630040		 0.00011439		-0.00017502		 0.00023160	
O		8.25873338		4.16383487		7.03447467		-0.00011439		-0.00017502		 0.00023160	
O		5.76526624		0.94516428		7.03447467		 0.00011439		 0.00017502		 0.00023160	
O		3.64343510		0.02452237		0.05807338		-0.00016702		-0.00035348		 0.00001920	
O		10.38056592		5.08447679		0.05807338		 0.00016702		 0.00035348		 0.00001920	
O		10.65543491		2.52997721		4.20625046		-0.00016702		 0.00035348		 0.00001920	
O		3.36856471		2.57902335		4.20625046		 0.00016702		-0.00035348		 0.00001920	
H		4.20719989		3.06539949		0.82963457		 0.00008043		-0.00011936		 0.00020753	
H		9.81679973		2.04359966		0.82963457		-0.00008043		 0.00011936		 0.00020753	
H		11.21919970		4.59809924		4.97781025		 0.00008043		 0.00011936		 0.00020753	
H		2.80479992		0.51089992		4.97781025		-0.00008043		-0.00011936		 0.00020753	
H		3.78647990		0.91961957		3.73335699		-0.00022456		-0.00033859		 0.00039728	
H		10.23751972		4.18937959		3.73335699		 0.00022456		 0.00033859		 0.00039728	
H		10.79847971		1.63488001		7.88153126		-0.00022456		 0.00033859		 0.00039728	
H		3.22551991		3.47412055		7.88153126		 0.00022456		-0.00033859		 0.00039728	
