# total energy = -49447.2788469 eV	

CRYSTAL	
PRIMVEC	
		14.02399962		0.00000000		0.00000000	
		0.00000000		5.10899916		0.00000000	
		0.00000000		0.00000000		9.16964825	
PRIMCOORD
   70 1	
Mg		2.42755433		1.67524108		0.04859877		 0.00022214		 0.00055151		-0.00006794	
Mg		11.59644529		3.43375948		0.04859877		-0.00022214		-0.00055151		-0.00006794	
Mg		9.43955414		0.87925850		4.63342429		 0.00022214		-0.00055151		-0.00006794	
Mg		4.58444548		4.22974066		4.63342429		-0.00022214		 0.00055151		-0.00006794	
Mg		2.48925993		4.27010173		1.60652348		-0.00009127		-0.00044614		 0.00015782	
Mg		11.53473969		0.83889743		1.60652348		 0.00009127		 0.00044614		 0.00015782	
Mg		9.50125974		3.39339841		6.19134621		-0.00009127		 0.00044614		 0.00015782	
Mg		4.52273988		1.71560215		6.19134621		 0.00009127		-0.00044614		 0.00015782	
Mg		4.54377588		1.76822441		2.97280043		 0.00012331		 0.00000819		-0.00063951	
Mg		9.48022374		3.34077475		2.97280043		-0.00012331		-0.00000819		-0.00063951	
Mg		11.55577569		0.78627517		7.55762595		 0.00012331		-0.00000819		-0.00063951	
Mg		2.46822393		4.32272539		7.55762595		-0.00012331		 0.00000819		-0.00063951	
Mg		0.00000000		2.55449958		7.59797160		0.00000000		0.00000000		-0.00019131	
Mg		7.01199981		0.00000000		3.01314747		0.00000000		0.00000000		-0.00019131	
Mg		0.00000000		2.55449958		1.71472565		0.00000000		0.00000000		-0.00042065	
Mg		7.01199981		0.00000000		6.29954978		0.00000000		0.00000000		-0.00042065	
Mg		0.00000000		0.00000000		6.07489231		0.00000000		0.00000000		 0.00000469	
Mg		7.01199981		2.55449958		1.49006819		0.00000000		0.00000000		 0.00000469	
Mg		0.00000000		0.00000000		3.16811407		0.00000000		0.00000000		 0.00093835	
Mg		7.01199981		2.55449958		7.75293820		0.00000000		0.00000000		 0.00093835	
Si		0.00000000		0.00000000		0.07060663		0.00000000		0.00000000		 0.00002792	
Si		7.01199981		2.55449958		4.65543075		0.00000000		0.00000000		 0.00002792	
Si		5.28143826		0.07203708		0.04676443		 0.00007412		-0.00011096		-0.00003669	
Si		8.74256136		5.03696348		0.04676443		-0.00007412		 0.00011096		-0.00003669	
Si		12.29343807		2.48246250		4.63158996		 0.00007412		 0.00011096		-0.00003669	
Si		1.73056155		2.62653666		4.63158996		-0.00007412		-0.00011096		-0.00003669	
O		5.82416704		3.62125895		9.11096342		-0.00002062		-0.00015137		-0.00008304	
O		8.19983258		1.48774161		9.11096342		 0.00002062		 0.00015137		-0.00008304	
O		12.83616825		4.04224119		4.52613930		-0.00002062		 0.00015137		-0.00008304	
O		1.18783277		1.06675937		4.52613930		 0.00002062		-0.00015137		-0.00008304	
O		1.09807917		3.54104728		0.04584866		 0.00006984		-0.00036573		-0.00015223	
O		12.92592045		1.56795188		0.04584866		-0.00006984		 0.00036573		-0.00015223	
O		8.11007898		4.12245145		4.63067279		 0.00006984		 0.00036573		-0.00015223	
O		5.91392064		0.98654770		4.63067279		-0.00006984		-0.00036573		-0.00015223	
O		3.49898791		0.11239815		3.16444539		 0.00038923		-0.00066830		 0.00017849	
O		10.52501171		4.99660241		3.16444539		-0.00038923		 0.00066830		 0.00017849	
O		10.51098912		2.44210143		7.74927092		 0.00038923		 0.00066830		 0.00017849	
O		3.51301190		2.66689773		7.74927092		-0.00038923		-0.00066830		 0.00017849	
O		3.57892470		2.61580830		1.48548234		-0.00006151		-0.00031591		 0.00052281	
O		10.44507492		2.49319226		1.48548234		 0.00006151		 0.00031591		 0.00052281	
O		10.59092451		5.04769184		6.07030787		-0.00006151		 0.00031591		 0.00052281	
O		3.43307511		0.06130732		6.07030787		 0.00006151		-0.00031591		 0.00052281	
O		1.06582397		0.73569622		1.40387248		 0.00016195		 0.00006713		-0.00024557	
O		12.95817705		4.37330434		1.40387248		-0.00016195		-0.00006713		-0.00024557	
O		8.07782378		1.81880336		5.98869801		 0.00016195		-0.00006713		-0.00024557	
O		5.94617584		3.29019579		5.98869801		-0.00016195		 0.00006713		-0.00024557	
O		6.02751504		3.30552262		3.31849623		-0.00016071		-0.00003625		-0.00005989	
O		7.99648318		1.80347653		3.31849623		 0.00016071		 0.00003625		-0.00005989	
O		13.03951625		4.35797752		7.90332035		-0.00016071		 0.00003625		-0.00005989	
O		0.98448477		0.75102304		7.90332035		 0.00016071		-0.00003625		-0.00005989	
O		5.81294784		0.78167670		1.46622739		 0.00000181		-0.00007196		-0.00004682	
O		8.21105178		4.32732245		1.46622739		-0.00000181		 0.00007196		-0.00004682	
O		12.82494765		1.77282288		6.05105152		 0.00000181		 0.00007196		-0.00004682	
O		1.19905197		3.33617628		6.05105152		-0.00000181		-0.00007196		-0.00004682	
O		1.24673357		3.49966526		3.19012053		 0.00011128		-0.00002556		-0.00003160	
O		12.77726605		1.60933530		3.19012053		-0.00011128		 0.00002556		-0.00003160	
O		8.25873338		4.16383487		7.77494606		 0.00011128		 0.00002556		-0.00003160	
O		5.76526624		0.94516428		7.77494606		-0.00011128		-0.00002556		-0.00003160	
O		3.64343510		0.02452237		0.06418785		 0.00010129		 0.00009942		 0.00027504	
O		10.38056592		5.08447679		0.06418785		-0.00010129		-0.00009942		 0.00027504	
O		10.65543491		2.52997721		4.64901337		 0.00010129		-0.00009942		 0.00027504	
O		3.36856471		2.57902335		4.64901337		-0.00010129		 0.00009942		 0.00027504	
H		4.20719989		3.06539949		0.91696482		-0.00031438		-0.00003350		 0.00015722	
H		9.81679973		2.04359966		0.91696482		 0.00031438		 0.00003350		 0.00015722	
H		11.21919970		4.59809924		5.50179035		-0.00031438		 0.00003350		 0.00015722	
H		2.80479992		0.51089992		5.50179035		 0.00031438		-0.00003350		 0.00015722	
H		3.78647990		0.91961957		4.12634171		 0.00007367		-0.00026225		-0.00010759	
H		10.23751972		4.18937959		4.12634171		-0.00007367		 0.00026225		-0.00010759	
H		10.79847971		1.63488001		8.71116724		 0.00007367		 0.00026225		-0.00010759	
H		3.22551991		3.47412055		8.71116724		-0.00007367		-0.00026225		-0.00010759	
