# total energy = -24713.808052 eV

CRYSTAL
PRIMVEC
		11.19422942		-0.00002884		-0.87020277
		-0.00001923		10.85857250		-0.00001923
		-2.27309604		-0.00000961		5.09377353
PRIMECORD
   40 1
Mg		2.23236173		5.47349864		1.05685498		 0.00017535		-0.00000267		 0.00000220
Mg		6.68873127		5.38503733		3.16670424		-0.00016362		 0.00002253		-0.00001392
Mg		7.82527544		0.04419508		0.61982613		-0.00001946		 0.00009825		-0.00002469
Mg		1.09581756		10.81434280		3.60373213		 0.00003123		-0.00012040		 0.00001314
Mg		2.22855199		0.04342122		1.05574080		 0.00000771		 0.00044798		-0.00052019
Mg		6.69256888		10.81512725		3.16780400		-0.00001539		-0.00047121		 0.00052983
Mg		7.82913517		5.47267670		0.62092973		-0.00015102		 0.00038183		 0.00051481
Mg		1.09198475		5.38585061		3.60261603		 0.00014333		-0.00036164		-0.00050497
Si		-0.56469499		3.62270488		1.26578209		 0.00000124		 0.00026176		 0.00085212
Si		9.48579664		7.23569458		2.95777040		 0.00002933		 0.00002579		-0.00084937
Si		10.62239369		9.05206034		0.41087402		-0.00009026		 0.00005939		-0.00084365
Si		-1.70132280		1.80660444		3.81267846		 0.00019242		-0.00032602		 0.00085227
Si		5.02775921		9.05193921		0.84201667		-0.00000373		 0.00001304		 0.00010376
Si		3.89339532		1.80659002		3.38154543		-0.00011625		-0.00000088		-0.00013317
Si		5.02999621		3.62257317		0.83464617		-0.00025215		 0.00021404		-0.00012605
Si		3.89113043		7.23596375		3.38891689		 0.00020022		-0.00020566		 0.00010315
O		9.38608493		4.53302863		-0.17822521		 0.00008156		-0.00015960		-0.00023981
O		-0.46501788		6.32554290		4.40176905		 0.00001832		 0.00005701		 0.00027641
O		0.67149841		9.96228219		1.85487459		 0.00008622		-0.00000483		 0.00029395
O		8.24958017		0.89623070		2.36866828		-0.00002106		 0.00008508		-0.00026815
O		0.67160224		4.53602124		1.85044288		 0.00004245		 0.00005803		 0.00004165
O		8.24955806		6.32256183		2.37311634		-0.00017142		-0.00018025		-0.00009650
O		9.38610415		-0.89332076		-0.17375696		-0.00013549		 0.00016351		-0.00008783
O		-0.46493328		11.75180193		4.39731522		-0.00002690		-0.00001879		 0.00002310
O		-1.12947458		2.70792633		2.53644098		-0.00030821		-0.00018658		 0.00002838
O		10.05059257		8.15062021		1.68709516		 0.00028682		 0.00016085		 0.00000205
O		8.91401860		8.13721162		4.23401845		 0.00033754		-0.00025692		-0.00010593
O		0.00709459		2.72132435		-0.01047462		-0.00034817		 0.00026416		 0.00011362
O		3.78997288		9.96556416		0.26119253		 0.00006941		-0.00015141		-0.00007037
O		5.13112012		0.89298815		3.96235899		-0.00000960		 0.00011427		 0.00009488
O		6.26764122		4.53624331		1.41546646		 0.00003813		-0.00010436		 0.00010294
O		2.65346235		6.32228785		2.80808603		-0.00001109		 0.00012047		-0.00008880
O		6.26982920		9.96109976		1.42018081		-0.00002702		 0.00032495		-0.00023517
O		2.65126092		0.89742082		2.80335726		 0.00008039		-0.00028455		 0.00026290
O		3.78777337		4.53186639		0.25646088		 0.00015142		 0.00021564		 0.00028569
O		5.13332732		6.32667823		3.96707719		-0.00012965		-0.00023451		-0.00026751
O		4.45744430		8.14719115		2.11704287		-0.00002165		 0.00005026		-0.00027873
O		4.46366697		2.71134193		2.10651346		 0.00003008		-0.00004784		 0.00027969
O		5.60016980		2.71798374		-0.44031370		 0.00012101		-0.00010727		 0.00008547
O		3.32093569		8.14056473		4.66387773		-0.00010201		 0.00008656		-0.00010721
