# total energy = -24716.4036726 eV

CRYSTAL
PRIMVEC
		9.50401475		0.00000000		0.05849675
		0.00000000		8.66753532		0.00000000
		-1.57917179		0.00000000		4.84719316
PRIMECORD
   40 1
Mg		2.06120324		5.68787935		1.04321759		-0.00004658		-0.00039915		 0.00008166
Mg		5.86364645		2.97966078		3.86247808		 0.00004701		 0.00039075		-0.00008064
Mg		6.65323139		1.35410881		1.43887958		 0.00004698		-0.00039072		-0.00008062
Mg		1.27161926		7.31342652		3.46681514		-0.00004653		 0.00039914		 0.00008166
Mg		2.10707103		0.14067770		1.03063382		-0.00018031		-0.00026014		-0.00032453
Mg		5.81777770		8.52685666		3.87505993		 0.00018370		 0.00026937		 0.00032898
Mg		6.60736167		4.47444921		1.45146143		 0.00018374		-0.00026935		 0.00032905
Mg		1.31748706		4.19309092		3.45423233		-0.00018035		 0.00026012		-0.00032464
Si		-0.06268909		2.96933228		1.43185901		 0.00013169		-0.00014270		 0.00036889
Si		7.98757147		5.69822419		3.47384724		-0.00025540		 0.00006585		-0.00041055
Si		8.77715640		7.30308168		1.05024970		-0.00025492		-0.00006688		-0.00041029
Si		-0.85227403		1.36443538		3.85545751		 0.00013113		 0.00014384		 0.00036857
Si		4.91796221		7.26181480		1.12081206		-0.00025011		 0.00021609		 0.00036099
Si		3.00686441		1.40570803		3.78486920		 0.00033871		-0.00016187		-0.00030483
Si		3.79644838		2.92806059		1.36127069		 0.00033896		 0.00016167		-0.00030453
Si		4.12837824		5.73949011		3.54441056		-0.00025016		-0.00021607		 0.00036088
O		7.91810886		2.94840035		0.96998178		 0.00037551		 0.00002698		 0.00018846
O		0.00672256		5.71913594		3.93570716		-0.00030383		-0.00002064		-0.00016313
O		0.79630653		7.28216993		1.51210866		-0.00030409		 0.00002074		-0.00016327
O		7.12852489		1.38536924		3.39357933		 0.00037581		-0.00002713		 0.00018856
O		0.65347161		4.38274054		1.53034503		 0.00020048		-0.00015051		-0.00014151
O		7.27136558		4.28477652		3.37534872		-0.00015136		 0.00022766		 0.00014760
O		8.06095051		0.04899211		0.95175118		-0.00015175		-0.00022689		 0.00014754
O		-0.13611236		8.61856533		3.95394258		 0.00020091		 0.00014970		-0.00014148
O		0.05266918		2.46322729		3.01771587		-0.00036194		 0.00024972		 0.00023752
O		7.87217666		6.20430996		1.88797693		 0.00037701		-0.00024908		-0.00022690
O		7.08259269		6.79699591		4.31157447		 0.00037686		 0.00024942		-0.00022664
O		0.84225315		1.87054134		0.59411736		-0.00036178		-0.00025007		 0.00023725
O		3.38851505		7.27064843		0.59847602		-0.00036768		-0.00016906		 0.00008079
O		4.53635001		1.39688978		4.30722446		 0.00030731		 0.00016509		-0.00010174
O		5.32593495		2.93687884		1.88362596		 0.00030709		-0.00016508		-0.00010181
O		2.59893108		5.73065744		3.02207452		-0.00036764		 0.00016903		 0.00008082
O		5.39666842		8.53312067		1.94248705		-0.00016293		 0.00000764		 0.00025732
O		2.52818992		0.13443100		2.96321824		 0.00013112		-0.00006480		-0.00029252
O		3.31777389		4.19933762		0.53961974		 0.00013106		 0.00006503		-0.00029268
O		4.60708445		4.46818520		4.36608459		-0.00016295		-0.00000772		 0.00025740
O		5.09102894		5.96488668		2.18343404		 0.00036476		-0.00068081		-0.00043253
O		2.83382459		2.70264961		2.72226260		-0.00037714		 0.00068652		 0.00042671
O		3.62340857		1.63111901		0.29866506		-0.00037718		-0.00068657		 0.00042669
O		4.30144497		7.03641919		4.60703254		 0.00036478		 0.00068090		-0.00043248
