# total energy = -2068.97331884 eV

CRYSTAL
PRIMVEC
		2.93801997		0.23504101		0.00000000
		-1.26545761		2.42688057		0.00000000
		0.00000000		0.00000000		2.67967971
PRIMECORD
   2 1
Mg		0.00000000		0.00000000		0.00000000		 0.00045121		-0.00042148		0.00000000
O		0.13570100		1.69626689		1.33983985		-0.00045121		 0.00042148		0.00000000
