# total energy = -24716.5934155 eV	

CRYSTAL	
PRIMVEC	
		9.27319965		0.00000000		0.00000000	
		0.00000000		8.72660017		0.00000000	
		0.00000000		0.00000000		5.45474641	
PRIMCOORD
   40 1	
Mg		0.00000000		7.89582627		1.36368614		0.00000000		 0.00025553		0.00000000	
Mg		0.00000000		0.83077205		4.09105656		0.00000000		-0.00025553		-0.00000000	
Mg		4.63659983		5.19407213		4.09105656		0.00000000		-0.00025553		0.00000000	
Mg		4.63659983		3.53252804		1.36368614		0.00000000		 0.00025553		-0.00000000	
Mg		0.00000000		2.30993085		1.36368614		0.00000000		-0.00033626		0.00000000	
Mg		0.00000000		6.41666839		4.09105656		0.00000000		 0.00033626		0.00000000	
Mg		4.63659983		2.05336924		4.09105656		0.00000000		 0.00033626		0.00000000	
Mg		4.63659983		6.67323094		1.36368614		0.00000000		-0.00033626		-0.00000000	
Si		2.70591966		0.79935723		0.36328594		 0.00057026		 0.00015609		-0.00072351	
Si		6.56727999		7.92724294		5.09145676		-0.00057026		-0.00015609		 0.00072351	
Si		1.93068017		3.56394286		3.09065729		-0.00057026		-0.00015609		-0.00072351	
Si		7.34251948		5.16265546		2.36408448		 0.00057026		 0.00015609		 0.00072351	
Si		6.56727999		0.79935723		2.36408448		-0.00057026		 0.00015609		 0.00072351	
Si		2.70591966		7.92724294		3.09065729		 0.00057026		-0.00015609		-0.00072351	
Si		7.34251948		3.56394286		5.09145676		 0.00057026		-0.00015609		 0.00072351	
Si		1.93068017		5.16265546		0.36328594		-0.00057026		 0.00015609		-0.00072351	
O		1.08774632		0.81681032		0.43201612		 0.00019454		-0.00018468		-0.00018123	
O		8.18545333		7.90978985		5.02272659		-0.00019454		 0.00018468		 0.00018123	
O		3.54885351		3.54648977		3.15938654		-0.00019454		 0.00018468		-0.00018123	
O		5.72434614		5.18010855		2.29535616		 0.00019454		-0.00018468		 0.00018123	
O		8.18545333		0.81681032		2.29535616		-0.00019454		-0.00018468		 0.00018123	
O		1.08774632		7.90978985		3.15938654		 0.00019454		 0.00018468		-0.00018123	
O		5.72434614		3.54648977		5.02272659		 0.00019454		 0.00018468		 0.00018123	
O		3.54885351		5.18010855		0.43201612		-0.00019454		-0.00018468		-0.00018123	
O		3.49321524		2.18688569		0.38183234		-0.00080061		 0.00054449		-0.00013735	
O		5.77998442		6.53971355		5.07291036		 0.00080061		-0.00054449		 0.00013735	
O		1.14338459		2.17641347		3.10920277		 0.00080061		-0.00054449		-0.00013735	
O		8.12981506		6.55018578		2.34553901		-0.00080061		 0.00054449		 0.00013735	
O		5.77998442		2.18688569		2.34553901		 0.00080061		 0.00054449		 0.00013735	
O		3.49321524		6.53971355		3.10920277		-0.00080061		-0.00054449		-0.00013735	
O		8.12981506		2.17641347		5.07291036		-0.00080061		-0.00054449		 0.00013735	
O		1.14338459		6.55018578		0.38183234		 0.00080061		 0.00054449		-0.00013735	
O		3.24747452		8.50232598		1.57751221		 0.00049825		 0.00063312		-0.00000045	
O		6.02572513		0.22427326		3.87723049		-0.00049825		-0.00063312		 0.00000045	
O		1.38912531		4.58757242		4.30488264		-0.00049825		-0.00063312		-0.00000045	
O		7.88407434		4.13902590		1.14986006		 0.00049825		 0.00063312		 0.00000045	
O		6.02572513		8.50232598		1.14986006		-0.00049825		 0.00063312		 0.00000045	
O		3.24747452		0.22427326		4.30488264		 0.00049825		-0.00063312		-0.00000045	
O		7.88407434		4.58757242		3.87723049		 0.00049825		-0.00063312		 0.00000045	
O		1.38912531		4.13902590		1.57751221		-0.00049825		 0.00063312		-0.00000045	
