# total energy = -92493.4128305 eV	

CRYSTAL	
PRIMVEC	
		18.49999462		0.00000000		1.47999586	
		0.00000000		17.89999731		0.00000000	
		0.42160720		0.00000000		5.27000644	
PRIMCOORD
   164 1	
Mg		2.56520799		3.04299732		2.19500024		 0.00068679		-0.00020111		 0.00217453	
Mg		16.35639197		14.85699071		4.55500021		-0.00068679		 0.00020111		-0.00217453	
Mg		7.21600845		14.85699071		5.18520061		 0.00171213		 0.00197847		 0.00132261	
Mg		11.70559152		3.04299732		1.56479983		-0.00171213		-0.00197847		-0.00132261	
Mg		16.35639197		11.99299411		4.55500021		-0.00068679		-0.00020111		-0.00217453	
Mg		2.56520799		5.90699577		2.19500024		 0.00068679		 0.00020111		 0.00217453	
Mg		11.70559152		5.90699577		1.56479983		-0.00171213		 0.00197847		-0.00132261	
Mg		7.21600845		11.99299411		5.18520061		 0.00171213		-0.00197847		 0.00132261	
Mg		2.77179125		1.43199830		4.77729931		-0.00043066		-0.00064425		 0.00062064	
Mg		16.14980871		16.46799158		1.97269928		 0.00043066		 0.00064425		-0.00062064	
Mg		7.00099193		16.46799158		2.49750067		 0.00136616		 0.00009295		-0.00129733	
Mg		11.92060803		1.43199830		4.25249978		-0.00136616		-0.00009295		 0.00129733	
Mg		16.14980871		10.38199324		1.97269928		 0.00043066		-0.00064425		-0.00062064	
Mg		2.77179125		7.51799664		4.77729931		-0.00043066		 0.00064425		 0.00062064	
Mg		11.92060803		7.51799664		4.25249978		-0.00136616		 0.00009295		 0.00129733	
Mg		7.00099193		10.38199324		2.49750067		 0.00136616		-0.00009295		-0.00129733	
Mg		2.56520799		17.54199031		2.19500024		 0.00016070		 0.00132199		 0.00235662	
Mg		16.35639197		0.35799957		4.55500021		-0.00016070		-0.00132199		-0.00235662	
Mg		7.21600845		0.35799957		5.18520061		-0.00090828		 0.00070192		-0.00051823	
Mg		11.70559152		17.54199031		1.56479983		 0.00090828		-0.00070192		 0.00051823	
Mg		16.35639197		8.59199537		4.55500021		-0.00016070		 0.00132199		-0.00235662	
Mg		2.56520799		9.30799452		2.19500024		 0.00016070		-0.00132199		 0.00235662	
Mg		11.70559152		9.30799452		1.56479983		 0.00090828		 0.00070192		 0.00051823	
Mg		7.21600845		8.59199537		5.18520061		-0.00090828		-0.00070192		-0.00051823	
Mg		2.77179125		4.47499747		4.77729931		-0.00033495		0.00000000		 0.00105566	
Mg		16.14980871		13.42499241		1.97269928		 0.00033495		0.00000000		-0.00105566	
Mg		7.00099193		13.42499241		2.49750067		 0.00128739		0.00000000		 0.00146065	
Mg		11.92060803		4.47499747		4.25249978		-0.00128739		0.00000000		-0.00146065	
Si		0.67726444		14.67799185		1.57270045		 0.00097873		 0.00088933		 0.00031243	
Si		18.24433738		3.22199803		5.17730000		-0.00097873		-0.00088933		-0.00031243	
Si		9.02806382		3.22199803		4.85889999		-0.00112855		-0.00119646		-0.00004164	
Si		9.89353429		14.67799185		1.89110046		 0.00112855		 0.00119646		 0.00004164	
Si		18.24433738		5.72799691		5.17730000		-0.00097873		 0.00088933		-0.00031243	
Si		0.67726444		12.17199297		1.57270045		 0.00097873		-0.00088933		 0.00031243	
Si		9.89353429		12.17199297		1.89110046		 0.00112855		-0.00119646		 0.00004164	
Si		9.02806382		5.72799691		4.85889999		-0.00112855		 0.00119646		-0.00004164	
Si		0.88806433		16.46799158		4.20769996		-0.00125081		-0.00010448		 0.00070592	
Si		18.03353749		1.43199830		2.54230049		 0.00125081		 0.00010448		-0.00070592	
Si		8.81726393		1.43199830		2.22390048		 0.00036667		-0.00085962		 0.00092067	
Si		10.10433418		16.46799158		4.52609997		-0.00036667		 0.00085962		-0.00092067	
Si		18.03353749		7.51799664		2.54230049		 0.00125081		-0.00010448		-0.00070592	
Si		0.88806433		10.38199324		4.20769996		-0.00125081		 0.00010448		 0.00070592	
Si		10.10433418		10.38199324		4.52609997		-0.00036667		-0.00085962		-0.00092067	
Si		8.81726393		7.51799664		2.22390048		 0.00036667		 0.00085962		 0.00092067	
Si		4.08686348		16.46799158		0.53640083		 0.00025715		-0.00033801		-0.00056085	
Si		14.83473463		1.43199830		6.21359962		-0.00025715		 0.00033801		 0.00056085	
Si		5.40766304		1.43199830		3.26020009		-0.00096151		-0.00021428		-0.00105727	
Si		13.51393693		16.46799158		3.48980035		 0.00096151		 0.00021428		 0.00105727	
Si		14.83473463		7.51799664		6.21359962		-0.00025715		-0.00033801		 0.00056085	
Si		4.08686348		10.38199324		0.53640083		 0.00025715		 0.00033801		-0.00056085	
Si		13.51393693		10.38199324		3.48980035		 0.00096151		-0.00021428		 0.00105727	
Si		5.40766304		7.51799664		3.26020009		-0.00096151		 0.00021428		-0.00105727	
Si		4.29766336		14.67799185		3.17140034		 0.00064025		 0.00025987		-0.00113963	
Si		14.62393475		3.22199803		3.57860010		-0.00064025		-0.00025987		 0.00113963	
Si		5.19686315		3.22199803		0.62520058		 0.00190909		-0.00071109		-0.00160212	
Si		13.72473681		14.67799185		6.12479986		-0.00190909		 0.00071109		 0.00160212	
Si		14.62393475		5.72799691		3.57860010		-0.00064025		 0.00025987		 0.00113963	
Si		4.29766336		12.17199297		3.17140034		 0.00064025		-0.00025987		-0.00113963	
Si		13.72473681		12.17199297		6.12479986		-0.00190909		-0.00071109		 0.00160212	
Si		5.19686315		5.72799691		0.62520058		 0.00190909		 0.00071109		-0.00160212	
O		1.19431926		1.25299944		1.14279918		 0.00139220		-0.00009978		-0.00074447	
O		17.72728070		16.64699044		5.60719941		-0.00139220		 0.00009978		 0.00074447	
O		8.43512082		16.64699044		4.34020083		 0.00005383		 0.00023648		 0.00020569	
O		10.48647915		1.25299944		2.40979961		-0.00005383		-0.00023648		-0.00020569	
O		17.72728070		10.20299438		5.60719941		-0.00139220		-0.00009978		 0.00074447	
O		1.19431926		7.69699550		1.14279918		 0.00139220		 0.00009978		-0.00074447	
O		10.48647915		7.69699550		2.40979961		-0.00005383		 0.00023648		-0.00020569	
O		8.43512082		10.20299438		4.34020083		 0.00005383		-0.00023648		 0.00020569	
O		1.40511915		3.22199803		3.77780055		 0.00041825		 0.00005415		 0.00027181	
O		17.51647896		14.67799185		2.97219990		-0.00041825		-0.00005415		-0.00027181	
O		8.22431907		14.67799185		1.70519947		 0.00114502		 0.00112072		-0.00065334	
O		10.69727904		3.22199803		5.04479912		-0.00114502		-0.00112072		 0.00065334	
O		17.51647896		12.17199297		2.97219990		-0.00041825		 0.00005415		-0.00027181	
O		1.40511915		5.72799691		3.77780055		 0.00041825		-0.00005415		 0.00027181	
O		10.69727904		5.72799691		5.04479912		-0.00114502		 0.00112072		 0.00065334	
O		8.22431907		12.17199297		1.70519947		 0.00114502		-0.00112072		-0.00065334	
O		1.19431926		13.42499241		1.14279918		 0.00018868		0.00000000		-0.00157288	
O		17.72728070		4.47499747		5.60719941		-0.00018868		0.00000000		 0.00157288	
O		8.43512082		4.47499747		4.34020083		 0.00088708		0.00000000		 0.00028867	
O		10.48647915		13.42499241		2.40979961		-0.00088708		0.00000000		-0.00028867	
O		1.19431926		4.47499747		1.14279918		-0.00010441		-0.00000000		 0.00075782	
O		17.72728070		13.42499241		5.60719941		 0.00010441		-0.00000000		-0.00075782	
O		8.43512082		13.42499241		4.34020083		 0.00263578		-0.00000000		 0.00132819	
O		10.48647915		4.47499747		2.40979961		-0.00263578		-0.00000000		-0.00132819	
O		1.40511915		0.00000000		3.77780055		 0.00018894		-0.00136437		 0.00180353	
O		17.51647896		0.00000000		2.97219990		-0.00018894		 0.00136437		-0.00180353	
O		8.22431907		0.00000000		1.70519947		 0.00138818		-0.00040497		-0.00194317	
O		10.69727904		0.00000000		5.04479912		-0.00138818		 0.00040497		 0.00194317	
O		17.51647896		8.94999494		2.97219990		-0.00018894		-0.00136437		-0.00180353	
O		1.40511915		8.94999494		3.77780055		 0.00018894		 0.00136437		 0.00180353	
O		10.69727904		8.94999494		5.04479912		-0.00138818		-0.00040497		 0.00194317	
O		8.22431907		8.94999494		1.70519947		 0.00138818		 0.00040497		-0.00194317	
O		0.94608009		15.57299172		0.33749919		 0.00053353		-0.00123565		-0.00140489	
O		17.97551987		2.32699817		6.41249940		-0.00053353		 0.00123565		 0.00140489	
O		8.55687968		2.32699817		3.56450075		-0.00183439		-0.00011502		 0.00048026	
O		10.36472028		15.57299172		3.18549969		 0.00183439		 0.00011502		-0.00048026	
O		17.97551987		6.62299678		6.41249940		-0.00053353		-0.00123565		 0.00140489	
O		0.94608009		11.27699311		0.33749919		 0.00053353		 0.00123565		-0.00140489	
O		10.36472028		11.27699311		3.18549969		 0.00183439		-0.00011502		-0.00048026	
O		8.55687968		6.62299678		3.56450075		-0.00183439		 0.00011502		 0.00048026	
O		1.15266335		15.57299172		2.91980012		 0.00016587		 0.00027932		 0.00102116	
O		17.76893662		2.32699817		3.83020033		-0.00016587		-0.00027932		-0.00102116	
O		8.34186317		2.32699817		0.87680081		 0.00061486		-0.00253292		-0.00061541	
O		10.57973680		15.57299172		5.87319964		-0.00061486		 0.00253292		 0.00061541	
O		17.76893662		6.62299678		3.83020033		-0.00016587		 0.00027932		-0.00102116	
O		1.15266335		11.27699311		2.91980012		 0.00016587		-0.00027932		 0.00102116	
O		10.57973680		11.27699311		5.87319964		-0.00061486		-0.00253292		 0.00061541	
O		8.34186317		6.62299678		0.87680081		 0.00061486		 0.00253292		-0.00061541	
O		3.53607934		3.22199803		0.54470046		 0.00191450		 0.00051357		 0.00263459	
O		15.38552063		14.67799185		6.20529998		-0.00191450		-0.00051357		-0.00263459	
O		5.96688044		14.67799185		3.35729948		 0.00102996		-0.00103322		-0.00043584	
O		12.95471953		3.22199803		3.39269911		-0.00102996		 0.00103322		 0.00043584	
O		15.38552063		12.17199297		6.20529998		-0.00191450		 0.00051357		-0.00263459	
O		3.53607934		5.72799691		0.54470046		 0.00191450		-0.00051357		 0.00263459	
O		12.95471953		5.72799691		3.39269911		-0.00102996		-0.00103322		 0.00043584	
O		5.96688044		12.17199297		3.35729948		 0.00102996		 0.00103322		-0.00043584	
O		3.75109585		1.25299944		3.23240041		-0.00078083		-0.00197911		-0.00070829	
O		15.17050411		16.64699044		3.51760004		 0.00078083		 0.00197911		 0.00070829	
O		5.76029532		16.64699044		0.77500040		 0.00071380		 0.00060883		 0.00083173	
O		13.16130464		1.25299944		5.97500004		-0.00071380		-0.00060883		-0.00083173	
O		15.17050411		10.20299438		3.51760004		 0.00078083		-0.00197911		 0.00070829	
O		3.75109585		7.69699550		3.23240041		-0.00078083		 0.00197911		-0.00070829	
O		13.16130464		7.69699550		5.97500004		-0.00071380		 0.00060883		-0.00083173	
O		5.76029532		10.20299438		0.77500040		 0.00071380		-0.00060883		 0.00083173	
O		3.53607934		0.00000000		0.54470046		 0.00069479		-0.00003777		-0.00065356	
O		15.38552063		0.00000000		6.20529998		-0.00069479		 0.00003777		 0.00065356	
O		5.96688044		0.00000000		3.35729948		 0.00075573		 0.00119696		 0.00009919	
O		12.95471953		0.00000000		3.39269911		-0.00075573		-0.00119696		-0.00009919	
O		15.38552063		8.94999494		6.20529998		-0.00069479		-0.00003777		 0.00065356	
O		3.53607934		8.94999494		0.54470046		 0.00069479		 0.00003777		-0.00065356	
O		12.95471953		8.94999494		3.39269911		-0.00075573		 0.00119696		-0.00009919	
O		5.96688044		8.94999494		3.35729948		 0.00075573		-0.00119696		 0.00009919	
O		3.70472036		13.42499241		2.65269933		 0.00137890		0.00000000		-0.00086005	
O		15.21687960		4.47499747		4.09729926		-0.00137890		0.00000000		 0.00086005	
O		6.13551960		4.47499747		5.46530020		-0.00050802		0.00000000		-0.00216380	
O		12.78608036		13.42499241		1.28470025		 0.00050802		0.00000000		 0.00216380	
O		3.74687923		4.47499747		3.17969997		 0.00102773		0.00000000		-0.00095226	
O		15.17472074		13.42499241		3.57030047		-0.00102773		0.00000000		 0.00095226	
O		5.75608055		13.42499241		0.72229997		-0.00023205		0.00000000		 0.00217355	
O		13.16551942		4.47499747		6.02770048		 0.00023205		0.00000000		-0.00217355	
O		3.82647923		15.57299172		1.87699925		-0.00005279		 0.00011666		-0.00067698	
O		15.09512074		2.32699817		4.87299934		 0.00005279		-0.00011666		 0.00067698	
O		5.88728043		2.32699817		4.66000020		 0.00072434		-0.00117169		-0.00153160	
O		13.03431953		15.57299172		2.09000025		-0.00072434		 0.00117169		 0.00153160	
O		15.09512074		6.62299678		4.87299934		 0.00005279		 0.00011666		 0.00067698	
O		3.82647923		11.27699311		1.87699925		-0.00005279		-0.00011666		-0.00067698	
O		13.03431953		11.27699311		2.09000025		-0.00072434		-0.00117169		 0.00153160	
O		5.88728043		6.62299678		4.66000020		 0.00072434		 0.00117169		-0.00153160	
O		4.03727911		15.57299172		4.51200062		 0.00018087		-0.00031711		-0.00067436	
O		14.88431900		2.32699817		2.23799983		-0.00018087		 0.00031711		 0.00067436	
O		5.67648055		2.32699817		2.02500069		 0.00102445		 0.00005219		 0.00026503	
O		13.24511942		15.57299172		4.72499976		-0.00102445		-0.00005219		-0.00026503	
O		14.88431900		6.62299678		2.23799983		-0.00018087		-0.00031711		 0.00067436	
O		4.03727911		11.27699311		4.51200062		 0.00018087		 0.00031711		-0.00067436	
O		13.24511942		11.27699311		4.72499976		-0.00102445		 0.00005219		-0.00026503	
O		5.67648055		6.62299678		2.02500069		 0.00102445		-0.00005219		 0.00026503	
H		18.00824143		0.00000000		2.22609973		 0.00070361		-0.00105245		-0.00023058	
H		0.91335853		0.00000000		4.52390071		-0.00070361		 0.00105245		 0.00023058	
H		10.07903812		0.00000000		4.20989921		-0.00030836		 0.00125285		-0.00045553	
H		8.84255999		0.00000000		2.54009938		 0.00030836		-0.00125285		 0.00045553	
H		0.91335853		8.94999494		4.52390071		-0.00070361		-0.00105245		 0.00023058	
H		18.00824143		8.94999494		2.22609973		 0.00070361		 0.00105245		-0.00023058	
H		8.84255999		8.94999494		2.54009938		 0.00030836		 0.00125285		 0.00045553	
H		10.07903812		8.94999494		4.20989921		-0.00030836		-0.00125285		-0.00045553	
