# total energy = -92496.5092457 eV	

CRYSTAL	
PRIMVEC	
		18.50000034		0.00000000		-0.73999927	
		0.00000000		17.89999143		0.00000000	
		-0.21079093		0.00000000		5.26999532	
PRIMCOORD
   164 1	
Mg		2.32489523		3.04299706		1.90639980		 0.00002202		 0.00021263		 0.00024858	
Mg		15.96430307		14.85699066		2.62359996		-0.00002202		-0.00021263		-0.00024858	
Mg		6.65949541		14.85699066		4.36379986		 0.00005871		-0.00017861		-0.00004920	
Mg		11.62970290		3.04299706		0.16619990		-0.00005871		 0.00017861		 0.00004920	
Mg		15.96430307		11.99299463		2.62359996		-0.00002202		 0.00021263		-0.00024858	
Mg		2.32489523		5.90699495		1.90639980		 0.00002202		-0.00021263		 0.00024858	
Mg		11.62970290		5.90699495		0.16619990		-0.00005871		-0.00017861		 0.00004920	
Mg		6.65949541		11.99299463		4.36379986		 0.00005871		 0.00017861		-0.00004920	
Mg		2.22160305		1.43199894		4.48870066		-0.00037706		 0.00009078		-0.00027246	
Mg		16.06759526		16.46799063		0.04129910		 0.00037706		-0.00009078		 0.00027246	
Mg		6.76700341		16.46799063		1.67609983		 0.00008172		 0.00009496		 0.00011087	
Mg		11.52219490		1.43199894		2.85389992		-0.00008172		-0.00009496		-0.00011087	
Mg		16.06759526		10.38199466		0.04129910		 0.00037706		 0.00009078		 0.00027246	
Mg		2.22160305		7.51799492		4.48870066		-0.00037706		-0.00009078		-0.00027246	
Mg		11.52219490		7.51799492		2.85389992		-0.00008172		 0.00009496		-0.00011087	
Mg		6.76700341		10.38199466		1.67609983		 0.00008172		-0.00009496		 0.00011087	
Mg		2.32489523		17.54199123		1.90639980		 0.00001808		 0.00004170		-0.00003469	
Mg		15.96430307		0.35800020		2.62359996		-0.00001808		-0.00004170		 0.00003469	
Mg		6.65949541		0.35800020		4.36379986		 0.00003005		 0.00016956		 0.00018758	
Mg		11.62970290		17.54199123		0.16619990		-0.00003005		-0.00016956		-0.00018758	
Mg		15.96430307		8.59199551		2.62359996		-0.00001808		 0.00004170		 0.00003469	
Mg		2.32489523		9.30799406		1.90639980		 0.00001808		-0.00004170		-0.00003469	
Mg		11.62970290		9.30799406		0.16619990		-0.00003005		 0.00016956		-0.00018758	
Mg		6.65949541		8.59199551		4.36379986		 0.00003005		-0.00016956		 0.00018758	
Mg		2.22160305		4.47499786		4.48870066		-0.00004061		-0.00000000		 0.00007243	
Mg		16.06759526		13.42499357		0.04129910		 0.00004061		-0.00000000		-0.00007243	
Mg		6.76700341		13.42499357		1.67609983		-0.00017992		0.00000000		-0.00065997	
Mg		11.52219490		4.47499786		2.85389992		 0.00017992		0.00000000		 0.00065997	
Si		0.49386731		14.67799149		1.50610070		 0.00016447		-0.00001438		-0.00005731	
Si		17.79533285		3.22199809		3.02389905		-0.00016447		 0.00001438		 0.00005731	
Si		8.52846755		3.22199809		3.81549905		 0.00001816		 0.00002663		-0.00021087	
Si		9.76073076		14.67799149		0.71450070		-0.00001816		-0.00002663		 0.00021087	
Si		17.79533285		5.72799763		3.02389905		-0.00016447		-0.00001438		 0.00005731	
Si		0.49386731		12.17199195		1.50610070		 0.00016447		 0.00001438		-0.00005731	
Si		9.76073076		12.17199195		0.71450070		-0.00001816		 0.00002663		 0.00021087	
Si		8.52846755		5.72799763		3.81549905		 0.00001816		-0.00002663		-0.00021087	
Si		0.38846814		16.46799063		4.14110022		-0.00002912		 0.00002738		 0.00008324	
Si		17.90073202		1.43199894		0.38889954		 0.00002912		-0.00002738		-0.00008324	
Si		8.63386857		1.43199894		1.18049954		 0.00001942		 0.00024593		-0.00003125	
Si		9.65533159		16.46799063		3.34950021		-0.00001942		-0.00024593		 0.00003125	
Si		17.90073202		7.51799492		0.38889954		 0.00002912		 0.00002738		-0.00008324	
Si		0.38846814		10.38199466		4.14110022		-0.00002912		-0.00002738		 0.00008324	
Si		9.65533159		10.38199466		3.34950021		-0.00001942		 0.00024593		 0.00003125	
Si		8.63386857		7.51799492		1.18049954		 0.00001942		-0.00024593		-0.00003125	
Si		4.06156807		16.46799063		0.04799960		-0.00002493		-0.00002809		-0.00000863	
Si		14.22763024		1.43199894		4.48200015		 0.00002493		 0.00002809		 0.00000863	
Si		5.06616781		1.43199894		2.63860064		-0.00002926		 0.00004735		 0.00002200	
Si		13.22303235		16.46799063		1.89139911		 0.00002926		-0.00004735		-0.00002200	
Si		14.22763024		7.51799492		4.48200015		 0.00002493		-0.00002809		 0.00000863	
Si		4.06156807		10.38199466		0.04799960		-0.00002493		 0.00002809		-0.00000863	
Si		13.22303235		10.38199466		1.89139911		 0.00002926		 0.00004735		-0.00002200	
Si		5.06616781		7.51799492		2.63860064		-0.00002926		-0.00004735		 0.00002200	
Si		3.95616705		14.67799149		2.68299912		 0.00011987		 0.00007982		 0.00000625	
Si		14.33303126		3.22199809		1.84700064		-0.00011987		-0.00007982		-0.00000625	
Si		5.17156698		3.22199809		0.00359928		-0.00007451		-0.00004581		 0.00018415	
Si		13.11763318		14.67799149		4.52640048		 0.00007451		 0.00004581		-0.00018415	
Si		14.33303126		5.72799763		1.84700064		-0.00011987		 0.00007982		-0.00000625	
Si		3.95616705		12.17199195		2.68299912		 0.00011987		-0.00007982		 0.00000625	
Si		13.11763318		12.17199195		4.52640048		 0.00007451		-0.00004581		-0.00018415	
Si		5.17156698		5.72799763		0.00359928		-0.00007451		 0.00004581		 0.00018415	
O		1.06784072		1.25299977		1.00960059		-0.00007823		 0.00004879		-0.00016951	
O		17.22135944		16.64698980		3.52039916		 0.00007823		-0.00004879		 0.00016951	
O		7.99244021		16.64698980		3.36339927		-0.00001281		 0.00023599		-0.00014653	
O		10.29675995		1.25299977		1.16660049		 0.00001281		-0.00023599		 0.00014653	
O		17.22135944		10.20299363		3.52039916		 0.00007823		 0.00004879		 0.00016951	
O		1.06784072		7.69699594		1.00960059		-0.00007823		-0.00004879		-0.00016951	
O		10.29675995		7.69699594		1.16660049		 0.00001281		 0.00023599		 0.00014653	
O		7.99244021		10.20299363		3.36339927		-0.00001281		-0.00023599		-0.00014653	
O		0.96243971		3.22199809		3.64460010		-0.00031228		-0.00023722		 0.00025491	
O		17.32676045		14.67799149		0.88539965		 0.00031228		 0.00023722		-0.00025491	
O		8.09783937		14.67799149		0.72839975		 0.00015095		 0.00005053		-0.00034348	
O		10.19135894		3.22199809		3.80160000		-0.00015095		-0.00005053		 0.00034348	
O		17.32676045		12.17199195		0.88539965		 0.00031228		-0.00023722		-0.00025491	
O		0.96243971		5.72799763		3.64460010		-0.00031228		 0.00023722		 0.00025491	
O		10.19135894		5.72799763		3.80160000		-0.00015095		 0.00005053		 0.00034348	
O		8.09783937		12.17199195		0.72839975		 0.00015095		-0.00005053		-0.00034348	
O		1.06784072		13.42499357		1.00960059		 0.00008438		0.00000000		-0.00046744	
O		17.22135944		4.47499786		3.52039916		-0.00008438		0.00000000		 0.00046744	
O		7.99244021		4.47499786		3.36339927		-0.00022091		0.00000000		-0.00037427	
O		10.29675995		13.42499357		1.16660049		 0.00022091		0.00000000		 0.00037427	
O		1.06784072		4.47499786		1.00960059		 0.00033324		0.00000000		 0.00026075	
O		17.22135944		13.42499357		3.52039916		-0.00033324		0.00000000		-0.00026075	
O		7.99244021		13.42499357		3.36339927		-0.00032566		0.00000000		-0.00005409	
O		10.29675995		4.47499786		1.16660049		 0.00032566		0.00000000		 0.00005409	
O		0.96243971		0.00000000		3.64460010		 0.00019065		-0.00011398		-0.00002454	
O		17.32676045		0.00000000		0.88539965		-0.00019065		 0.00011398		 0.00002454	
O		8.09783937		0.00000000		0.72839975		-0.00027350		 0.00030200		 0.00018588	
O		10.19135894		0.00000000		3.80160000		 0.00027350		-0.00030200		-0.00018588	
O		17.32676045		8.94999571		0.88539965		-0.00019065		-0.00011398		 0.00002454	
O		0.96243971		8.94999571		3.64460010		 0.00019065		 0.00011398		-0.00002454	
O		10.19135894		8.94999571		3.80160000		 0.00027350		 0.00030200		-0.00018588	
O		8.09783937		8.94999571		0.72839975		-0.00027350		-0.00030200		 0.00018588	
O		0.91446047		15.57299106		0.22650073		-0.00007420		 0.00003923		-0.00001177	
O		17.37473969		2.32699852		4.30349903		 0.00007420		-0.00003923		 0.00001177	
O		8.20905959		2.32699852		2.56550053		-0.00032286		 0.00004562		-0.00014433	
O		10.08014057		15.57299106		1.96449922		 0.00032286		-0.00004562		 0.00014433	
O		17.37473969		6.62299535		4.30349903		 0.00007420		 0.00003923		 0.00001177	
O		0.91446047		11.27699423		0.22650073		-0.00007420		-0.00003923		-0.00001177	
O		10.08014057		11.27699423		1.96449922		 0.00032286		 0.00004562		 0.00014433	
O		8.20905959		6.62299535		2.56550053		-0.00032286		-0.00004562		-0.00014433	
O		0.81116829		15.57299106		2.80879973		 0.00003815		 0.00042868		-0.00031780	
O		17.47803187		2.32699852		1.72120002		-0.00003815		-0.00042868		 0.00031780	
O		8.31656759		2.32699852		-0.12219949		 0.00023337		 0.00013137		-0.00004813	
O		9.97263257		15.57299106		4.65219924		-0.00023337		-0.00013137		 0.00004813	
O		17.47803187		6.62299535		1.72120002		-0.00003815		 0.00042868		 0.00031780	
O		0.81116829		11.27699423		2.80879973		 0.00003815		-0.00042868		-0.00031780	
O		9.97263257		11.27699423		4.65219924		-0.00023337		 0.00013137		 0.00004813	
O		8.31656759		6.62299535		-0.12219949		 0.00023337		-0.00013137		-0.00004813	
O		3.50445978		3.22199809		0.12289935		 0.00017076		-0.00004986		 0.00006147	
O		14.78474038		14.67799149		4.40710041		-0.00017076		 0.00004986		-0.00006147	
O		5.61906028		14.67799149		2.66910006		-0.00009736		-0.00004996		-0.00001775	
O		12.67013988		3.22199809		1.86089969		 0.00009736		 0.00004996		 0.00001775	
O		14.78474038		12.17199195		4.40710041		-0.00017076		-0.00004986		-0.00006147	
O		3.50445978		5.72799763		0.12289935		 0.00017076		 0.00004986		 0.00006147	
O		12.67013988		5.72799763		1.86089969		 0.00009736		-0.00004996		 0.00001775	
O		5.61906028		12.17199195		2.66910006		-0.00009736		 0.00004996		-0.00001775	
O		3.39695178		1.25299977		2.81059937		-0.00006050		 0.00007117		 0.00009461	
O		14.89224838		16.64698980		1.71940038		 0.00006050		-0.00007117		-0.00009461	
O		5.72235247		16.64698980		0.08679920		-0.00005297		 0.00011679		 0.00049482	
O		12.56684769		1.25299977		4.44320055		 0.00005297		-0.00011679		-0.00049482	
O		14.89224838		10.20299363		1.71940038		 0.00006050		 0.00007117		-0.00009461	
O		3.39695178		7.69699594		2.81059937		-0.00006050		-0.00007117		 0.00009461	
O		12.56684769		7.69699594		4.44320055		 0.00005297		 0.00011679		-0.00049482	
O		5.72235247		10.20299363		0.08679920		-0.00005297		-0.00011679		 0.00049482	
O		3.50445978		0.00000000		0.12289935		 0.00017725		 0.00003617		 0.00015055	
O		14.78474038		0.00000000		4.40710041		-0.00017725		-0.00003617		-0.00015055	
O		5.61906028		0.00000000		2.66910006		-0.00024612		 0.00003231		-0.00015342	
O		12.67013988		0.00000000		1.86089969		 0.00024612		-0.00003231		 0.00015342	
O		14.78474038		8.94999571		4.40710041		-0.00017725		 0.00003617		-0.00015055	
O		3.50445978		8.94999571		0.12289935		 0.00017725		-0.00003617		 0.00015055	
O		12.67013988		8.94999571		1.86089969		 0.00024612		 0.00003231		 0.00015342	
O		5.61906028		8.94999571		2.66910006		-0.00024612		-0.00003231		-0.00015342	
O		3.42013971		13.42499357		2.23089933		 0.00026250		-0.00000000		 0.00015792	
O		14.86906046		4.47499786		2.29910042		-0.00026250		-0.00000000		-0.00015792	
O		5.53474021		4.47499786		4.77710004		-0.00007142		0.00000000		 0.00033089	
O		12.75445995		13.42499357		-0.24710029		 0.00007142		0.00000000		-0.00033089	
O		3.39906061		4.47499786		2.75790071		 0.00024705		0.00000000		-0.00015050	
O		14.89013955		13.42499357		1.77209904		-0.00024705		0.00000000		 0.00015050	
O		5.72445945		13.42499357		0.03410055		 0.00033979		0.00000000		-0.00006456	
O		12.56473886		4.47499786		4.49589921		-0.00033979		0.00000000		 0.00006456	
O		3.63675909		15.57299106		1.43300059		 0.00003100		-0.00030547		-0.00015145	
O		14.65243922		2.32699852		3.09699916		-0.00003100		 0.00030547		 0.00015145	
O		5.38135996		2.32699852		3.99400018		 0.00011779		 0.00038960		-0.00018265	
O		12.90784020		15.57299106		0.53599957		-0.00011779		-0.00038960		 0.00018265	
O		14.65243922		6.62299535		3.09699916		-0.00003100		-0.00030547		 0.00015145	
O		3.63675909		11.27699423		1.43300059		 0.00003100		 0.00030547		-0.00015145	
O		12.90784020		11.27699423		0.53599957		-0.00011779		 0.00038960		 0.00018265	
O		5.38135996		6.62299535		3.99400018		 0.00011779		-0.00038960		-0.00018265	
O		3.53135992		15.57299106		4.06800011		-0.00009440		-0.00000328		-0.00019418	
O		14.75784024		2.32699852		0.46199965		 0.00009440		 0.00000328		 0.00019418	
O		5.48675912		2.32699852		1.35900067		 0.00018505		-0.00009581		-0.00001933	
O		12.80243919		15.57299106		3.17099909		-0.00018505		 0.00009581		 0.00001933	
O		14.75784024		6.62299535		0.46199965		 0.00009440		-0.00000328		 0.00019418	
O		3.53135992		11.27699423		4.06800011		-0.00009440		 0.00000328		-0.00019418	
O		12.80243919		11.27699423		3.17099909		-0.00018505		-0.00009581		 0.00001933	
O		5.48675912		6.62299535		1.35900067		 0.00018505		 0.00009581		-0.00001933	
H		17.91338132		0.00000000		0.07270019		 0.00014649		-0.00030486		 0.00006569	
H		0.37581884		0.00000000		4.45729957		-0.00014649		 0.00030486		-0.00006569	
H		9.66797904		0.00000000		3.03329901		 0.00010830		 0.00045951		 0.00012113	
H		8.62122112		0.00000000		1.49670074		-0.00010830		-0.00045951		-0.00012113	
H		0.37581884		8.94999571		4.45729957		-0.00014649		-0.00030486		-0.00006569	
H		17.91338132		8.94999571		0.07270019		 0.00014649		 0.00030486		 0.00006569	
H		8.62122112		8.94999571		1.49670074		-0.00010830		 0.00045951		-0.00012113	
H		9.66797904		8.94999571		3.03329901		 0.00010830		-0.00045951		 0.00012113	
