# total energy = -34526.6858676 eV	

CRYSTAL	
PRIMVEC	
		9.34399986		0.00000000		0.00000000	
		0.00000000		5.30799928		0.00000000	
		-0.48050585		0.00000000		11.95318100	
PRIMCOORD
   56 1	
Si		1.25702494		2.54146985		4.34031877		 0.00030032		 0.00058181		 0.00007403	
Si		7.60647094		2.76653036		7.61286130		-0.00030032		-0.00058181		-0.00007403	
Si		7.84672293		2.54146985		1.63627080		-0.00025110		 0.00047754		-0.00021292	
Si		1.01677295		2.76653036		10.31690927		 0.00025110		-0.00047754		 0.00021292	
Si		5.92902487		5.19546949		4.34031877		 0.00025810		 0.00055422		 0.00008194	
Si		2.93447101		0.11252979		7.61286130		-0.00025810		-0.00055422		-0.00008194	
Si		3.17472300		5.19546949		1.63627080		-0.00024555		 0.00047093		-0.00021052	
Si		5.68877288		0.11252979		10.31690927		 0.00024555		-0.00047093		 0.00021052	
Mg		4.43174794		2.65399964		5.97658957		0.00000000		0.00000000		0.00000000	
Mg		4.67199993		2.65399964		0.00000000		0.00000000		0.00000000		0.00000000	
Mg		-0.24025199		0.00000000		5.97658957		0.00000000		0.00000000		0.00000000	
Mg		0.00000000		0.00000000		0.00000000		0.00000000		0.00000000		0.00000000	
O		0.46208042		1.13431953		4.47407532		 0.00073908		 0.00020008		-0.00023943	
O		8.40141453		4.17367974		7.47910381		-0.00073908		-0.00020008		 0.00023943	
O		8.64166745		1.13431953		1.50251518		-0.00076849		 0.00025560		 0.00025392	
O		0.22182843		4.17367974		10.45066489		 0.00076849		-0.00025560		-0.00025392	
O		5.13408034		3.78832011		4.47407532		 0.00075376		 0.00022276		-0.00024033	
O		3.72941553		1.51968010		7.47910381		-0.00075376		-0.00022276		 0.00024033	
O		3.96966752		3.78832011		1.50251518		-0.00077043		 0.00025971		 0.00025253	
O		4.89382835		1.51968010		10.45066489		 0.00077043		-0.00025971		-0.00025253	
O		2.66276525		2.43743375		5.07412457		 0.00038571		-0.00036719		-0.00004832	
O		6.20072970		2.87056552		6.87905456		-0.00038571		 0.00036719		 0.00004832	
O		6.44098262		2.43743375		0.90246500		-0.00036350		-0.00036238		 0.00007172	
O		2.42251326		2.87056552		11.05071413		 0.00036350		 0.00036238		-0.00007172	
O		7.33476517		5.09143433		5.07412457		 0.00040798		-0.00036690		-0.00003748	
O		1.52873070		0.21656588		6.87905456		-0.00040798		 0.00036690		 0.00003748	
O		1.76898269		5.09143433		0.90246500		-0.00036757		-0.00036197		 0.00006882	
O		7.09451318		0.21656588		11.05071413		 0.00036757		 0.00036197		-0.00006882	
O		0.40556510		3.65933460		5.08966364		-0.00035240		-0.00005653		 0.00019155	
O		8.45793078		1.64866468		6.86351549		 0.00035240		 0.00005653		-0.00019155	
O		8.69818277		3.65933460		0.88692593		 0.00033936		-0.00007089		-0.00017297	
O		0.16531218		1.64866468		11.06625321		-0.00033936		 0.00007089		 0.00017297	
O		5.07756409		1.00533496		5.08966364		-0.00034602		-0.00006282		 0.00018755	
O		3.78593085		4.30266525		6.86351549		 0.00034602		 0.00006282		-0.00018755	
O		4.02618284		1.00533496		0.88692593		 0.00033976		-0.00007032		-0.00017385	
O		4.83731210		4.30266525		11.06625321		-0.00033976		 0.00007032		 0.00017385	
O		1.45510185		3.11208082		3.01578717		-0.00040626		-0.00010696		 0.00024074	
O		7.40839402		2.19592032		8.93739196		 0.00040626		 0.00010696		-0.00024074	
O		7.64864601		3.11208082		2.96080333		 0.00037692		-0.00005648		-0.00012248	
O		1.21484893		2.19592032		8.99237673		-0.00037692		 0.00005648		 0.00012248	
O		6.12710085		0.45808025		3.01578717		-0.00039883		-0.00009838		 0.00022480	
O		2.73639410		4.84991996		8.93739196		 0.00039883		 0.00009838		-0.00022480	
O		2.97664609		0.45808025		2.96080333		 0.00037512		-0.00005519		-0.00012175	
O		5.88684886		4.84991996		8.99237673		-0.00037512		 0.00005519		 0.00012175	
Ca		1.59139157		2.54783965		1.06885267		-0.00032760		-0.00043311		 0.00002947	
Ca		7.27210244		2.76015962		10.88432553		 0.00032760		 0.00043311		-0.00002947	
Ca		7.51235443		2.54783965		4.90773690		 0.00032119		-0.00043341		-0.00004728	
Ca		1.35113958		2.76015962		7.04544317		-0.00032119		 0.00043341		 0.00004728	
Ca		6.26339149		5.20184023		1.06885267		-0.00032882		-0.00043367		 0.00002953	
Ca		2.60010251		0.10615999		10.88432553		 0.00032882		 0.00043367		-0.00002953	
Ca		2.84035450		5.20184023		4.90773690		 0.00032573		-0.00043571		-0.00004775	
Ca		6.02313950		0.10615999		7.04544317		-0.00032573		 0.00043571		 0.00004775	
Ca		-0.12012646		4.93166314		2.98829525		 0.00000345		 0.00003449		-0.00000589	
Ca		-0.36037845		0.37633707		8.96488482		-0.00000345		-0.00003449		 0.00000589	
Ca		4.55187347		2.27766257		2.98829525		 0.00000182		 0.00003534		-0.00000483	
Ca		4.31162148		3.03033671		8.96488482		-0.00000182		-0.00003534		 0.00000483	
