# total energy = -24716.21464 eV	

CRYSTAL	
PRIMVEC	
		9.77716791		0.00000000		0.00000000	
		0.00000000		8.66009714		0.00000000	
		-1.72932680		0.00000000		4.98419488	
PRIMCOORD
   40 1	
Mg		-0.43233268		7.83046338		1.24604823		 0.00000003		-0.00064012		-0.00000005	
Mg		-1.29699803		0.82963669		3.73814274		-0.00000003		 0.00064012		 0.00000005	
Mg		4.45625128		3.50041285		1.24604823		 0.00000003		-0.00065626		-0.00000003	
Mg		3.59158592		5.15968722		3.73814274		-0.00000003		 0.00065626		 0.00000003	
Mg		-0.43233268		2.47332528		1.24604823		-0.00000003		-0.00024596		-0.00000012	
Mg		-1.29699803		6.18677480		3.73814274		 0.00000003		 0.00024596		 0.00000012	
Mg		4.45625128		6.80337483		1.24604823		-0.00000004		-0.00022971		-0.00000012	
Mg		3.59158592		1.85672525		3.73814274		 0.00000004		 0.00022971		 0.00000012	
Si		2.43228464		0.79655565		1.22461570		-0.00057696		 0.00043934		-0.00028147	
Si		5.61555061		7.86354345		3.75957527		 0.00057696		-0.00043934		 0.00028147	
Si		6.48021694		0.79655565		1.26747978		 0.00057585		 0.00044070		 0.00028071	
Si		1.56762026		7.86354345		3.71671118		-0.00057585		-0.00044070		-0.00028071	
Si		7.32086859		5.12660617		1.22461570		-0.00039989		 0.00054466		-0.00020702	
Si		0.72696763		3.53349390		3.75957527		 0.00039989		-0.00054466		 0.00020702	
Si		1.59163299		5.12660617		1.26747978		 0.00039872		 0.00054607		 0.00020621	
Si		6.45620324		3.53349390		3.71671118		-0.00039872		-0.00054607		-0.00020621	
O		0.86617202		0.71705554		0.68781790		-0.00013599		-0.00034467		-0.00002732	
O		7.18166518		7.94304258		4.29637307		 0.00013599		 0.00034467		 0.00002732	
O		8.04632956		0.71705554		1.80427661		 0.00013667		-0.00034472		 0.00002766	
O		0.00150666		7.94304258		3.17991436		-0.00013667		 0.00034472		-0.00002766	
O		5.75475597		5.04710704		0.68781790		-0.00023884		-0.00035893		-0.00007477	
O		2.29308025		3.61299401		4.29637307		 0.00023884		 0.00035893		 0.00007477	
O		3.15774561		5.04710704		1.80427661		 0.00023956		-0.00035900		 0.00007514	
O		4.89008964		3.61299401		3.17991436		-0.00023956		 0.00035900		-0.00007514	
O		3.00522374		2.23170799		1.58447414		 0.00002070		 0.00013025		 0.00031428	
O		5.04261248		6.42839306		3.39971682		-0.00002070		-0.00013025		-0.00031428	
O		5.90727783		2.23170799		0.90762134		-0.00002017		 0.00012904		-0.00031406	
O		2.14055839		6.42839306		4.07656963		 0.00002017		-0.00012904		 0.00031406	
O		7.89380770		6.56175656		1.58447414		-0.00005104		 0.00002867		 0.00030224	
O		0.15402853		2.09834156		3.39971682		 0.00005104		-0.00002867		-0.00030224	
O		1.01869486		6.56175656		0.90762134		 0.00005158		 0.00002746		-0.00030202	
O		7.02914234		2.09834156		4.07656963		-0.00005158		-0.00002746		 0.00030202	
O		3.41943444		0.05629107		0.12859225		-0.00048000		-0.00008134		-0.00018672	
O		4.62840276		8.60380901		4.85559872		 0.00048000		 0.00008134		 0.00018672	
O		5.49306811		0.05629107		2.36350422		 0.00047985		-0.00008164		 0.00018692	
O		2.55476811		8.60380901		2.62068773		-0.00047985		 0.00008164		-0.00018692	
O		8.30801839		4.38634062		0.12859225		-0.00050082		-0.00009528		-0.00020377	
O		-0.26018119		4.27375848		4.85559872		 0.00050082		 0.00009528		 0.00020377	
O		0.60448514		4.38634062		2.36350422		 0.00050065		-0.00009559		 0.00020399	
O		7.44335206		4.27375848		2.62068773		-0.00050065		 0.00009559		-0.00020399	
