# total energy = -24715.9148429 eV	

CRYSTAL	
PRIMVEC	
		10.49256997		0.00000000		0.00000000	
		0.00000000		8.66009509		0.00000000	
		-1.85586282		0.00000000		4.98419108	
PRIMCOORD
   40 1	
Mg		-0.46396675		7.83046332		1.24604829		-0.00000001		 0.00052481		-0.00000001	
Mg		-1.39190131		0.82963702		3.73814279		 0.00000001		-0.00052481		 0.00000001	
Mg		4.78231823		3.50041263		1.24604829		-0.00000000		 0.00052884		0.00000000	
Mg		3.85438367		5.15968666		3.73814279		0.00000000		-0.00052884		-0.00000000	
Mg		-0.46396675		2.47332538		1.24604829		-0.00000001		-0.00060295		 0.00000001	
Mg		-1.39190131		6.18677495		3.73814279		 0.00000001		 0.00060295		-0.00000001	
Mg		4.78231823		6.80337503		1.24604829		 0.00000002		-0.00060959		-0.00000000	
Mg		3.85438367		1.85672531		3.73814279		-0.00000002		 0.00060959		0.00000000	
Si		2.61025657		0.79655604		1.22461617		 0.00032222		-0.00025223		-0.00010957	
Si		6.02644534		7.86354430		3.75957491		-0.00032222		 0.00025223		 0.00010957	
Si		6.95437885		0.79655604		1.26748042		-0.00032208		-0.00025239		 0.00010964	
Si		1.68232306		7.86354430		3.71671066		 0.00032208		 0.00025239		-0.00010964	
Si		7.85654155		5.12660568		1.22461617		 0.00031636		-0.00027324		-0.00011474	
Si		0.78016035		3.53349360		3.75957491		-0.00031636		 0.00027324		 0.00011474	
Si		1.70809386		5.12660568		1.26748042		-0.00031622		-0.00027336		 0.00011484	
Si		6.92860909		3.53349360		3.71671066		 0.00031622		 0.00027336		-0.00011484	
O		0.92955146		0.71705594		0.68781839		-0.00005479		-0.00012906		 0.00010179	
O		7.70715149		7.94304335		4.29637269		 0.00005479		 0.00012906		-0.00010179	
O		8.63508605		0.71705594		1.80427715		 0.00005473		-0.00012906		-0.00010183	
O		0.00161691		7.94304335		3.17991393		-0.00005473		 0.00012906		 0.00010183	
O		6.17583645		5.04710663		0.68781839		-0.00005052		-0.00012799		 0.00010118	
O		2.46086650		3.61299371		4.29637269		 0.00005052		 0.00012799		-0.00010118	
O		3.38880106		5.04710663		1.80427715		 0.00005046		-0.00012800		-0.00010125	
O		5.24790189		3.61299371		3.17991393		-0.00005046		 0.00012800		 0.00010125	
O		3.22511802		2.23170773		1.58447355		-0.00007670		 0.00000267		 0.00021550	
O		5.41158388		6.42839261		3.39971648		 0.00007670		-0.00000267		-0.00021550	
O		6.33951844		2.23170773		0.90762094		 0.00007664		 0.00000281		-0.00021552	
O		2.29718451		6.42839261		4.07657014		-0.00007664		-0.00000281		 0.00021552	
O		8.47140301		6.56175737		1.58447355		-0.00006651		 0.00002036		 0.00022124	
O		0.16529995		2.09834192		3.39971648		 0.00006651		-0.00002036		-0.00022124	
O		1.09323346		6.56175737		0.90762094		 0.00006645		 0.00002048		-0.00022130	
O		7.54346950		2.09834192		4.07657014		-0.00006645		-0.00002048		 0.00022130	
O		3.66963575		0.05629054		0.12859169		 0.00007840		-0.00029113		-0.00003220	
O		4.96706616		8.60380875		4.85559939		-0.00007840		 0.00029113		 0.00003220	
O		5.89499967		0.05629054		2.36350385		-0.00007838		-0.00029107		 0.00003211	
O		2.74170224		8.60380875		2.62068828		 0.00007838		 0.00029107		-0.00003211	
O		8.91592073		4.38634123		0.12859169		 0.00007938		-0.00029285		-0.00003008	
O		-0.27921883		4.27375910		4.85559939		-0.00007938		 0.00029285		 0.00003008	
O		0.64871468		4.38634123		2.36350385		-0.00007938		-0.00029290		 0.00003012	
O		7.98798827		4.27375910		2.62068828		 0.00007938		 0.00029290		-0.00003012	
