# total energy = -24715.2047011 eV	

CRYSTAL	
PRIMVEC	
		9.30023267		0.00000000		0.00000000	
		0.00000000		8.66009765		0.00000000	
		-1.64496935		0.00000000		4.98418999	
PRIMCOORD
   40 1	
Mg		-0.41124327		7.83046296		1.24604796		-0.00000044		 0.00010658		 0.00000057	
Mg		-1.23372980		0.82963656		3.73814296		 0.00000044		-0.00010658		-0.00000057	
Mg		4.23887307		3.50041320		1.24604796		-0.00000045		 0.00009370		 0.00000055	
Mg		3.41638560		5.15968724		3.73814296		 0.00000045		-0.00009370		-0.00000055	
Mg		-0.41124327		2.47332527		1.24604796		 0.00000026		-0.00016258		 0.00000083	
Mg		-1.23372980		6.18677518		3.73814296		-0.00000026		 0.00016258		-0.00000083	
Mg		4.23887307		6.80337502		1.24604796		 0.00000026		-0.00014192		 0.00000084	
Mg		3.41638560		1.85672449		3.73814296		-0.00000026		 0.00014192		-0.00000084	
Si		2.31363655		0.79655563		1.22461558		 0.00013996		 0.00030673		-0.00026742	
Si		5.34162211		7.86354389		3.75957441		-0.00013996		-0.00030673		 0.00026742	
Si		6.16410865		0.79655563		1.26748035		-0.00012752		 0.00029187		 0.00027912	
Si		1.49115001		7.86354389		3.71671057		 0.00012752		-0.00029187		-0.00027912	
Si		6.96375289		5.12660538		1.22461558		 0.00022686		 0.00038622		-0.00021619	
Si		0.69150578		3.53349413		3.75957441		-0.00022686		-0.00038622		 0.00021619	
Si		1.51399232		5.12660538		1.26748035		-0.00021468		 0.00037161		 0.00022767	
Si		6.14126635		3.53349413		3.71671057		 0.00021468		-0.00037161		-0.00022767	
O		0.82391970		0.71705631		0.68781824		 0.00024485		-0.00019478		 0.00034470	
O		6.83133896		7.94304227		4.29637268		-0.00024485		 0.00019478		-0.00034470	
O		7.65382550		0.71705631		1.80427676		-0.00025447		-0.00019404		-0.00034918	
O		0.00143317		7.94304227		3.17991416		 0.00025447		 0.00019404		 0.00034918	
O		5.47403604		5.04710700		0.68781824		 0.00018811		-0.00020967		 0.00032539	
O		2.18122263		3.61299345		4.29637268		-0.00018811		 0.00020967		-0.00032539	
O		3.00371010		5.04710700		1.80427676		-0.00019748		-0.00020893		-0.00032984	
O		4.65154857		3.61299345		3.17991416		 0.00019748		 0.00020893		 0.00032984	
O		2.85862647		2.23170801		1.58447413		 0.00011928		-0.00019562		 0.00013300	
O		4.79663127		6.42839243		3.39971679		-0.00011928		 0.00019562		-0.00013300	
O		5.61911781		2.23170801		0.90762087		-0.00012421		-0.00018251		-0.00013926	
O		2.03614086		6.42839243		4.07657006		 0.00012421		 0.00018251		 0.00013926	
O		7.50874373		6.56175684		1.58447413		 0.00008441		-0.00026984		 0.00010920	
O		0.14651494		2.09834175		3.39971679		-0.00008441		 0.00026984		-0.00010920	
O		0.96900240		6.56175684		0.90762087		-0.00008922		-0.00025696		-0.00011530	
O		6.68625719		2.09834175		4.07657006		 0.00008922		 0.00025696		 0.00011530	
O		3.25263175		0.05629059		0.12859246		-0.00001363		-0.00017229		-0.00013175	
O		4.40262691		8.60380893		4.85559846		 0.00001363		 0.00017229		 0.00013175	
O		5.22511345		0.05629059		2.36350347		 0.00001503		-0.00017047		 0.00013015	
O		2.43014522		8.60380893		2.62068745		-0.00001503		 0.00017047		-0.00013015	
O		7.90274902		4.38634128		0.12859246		-0.00002015		-0.00017824		-0.00014139	
O		-0.24748942		4.27375917		4.85559846		 0.00002015		 0.00017824		 0.00014139	
O		0.57499804		4.38634128		2.36350347		 0.00002149		-0.00017648		 0.00013986	
O		7.08026155		4.27375917		2.62068745		-0.00002149		 0.00017648		-0.00013986	
