# total energy = -14245.1132887 eV

CRYSTAL
PRIMVEC
		7.73000250		-1.23680384		0.00000000
		-1.23680384		7.73000250		0.00000000
		0.00000000		0.00000000		5.00999849
PRIMECORD
   24 1
Ca		2.34064370		0.90595563		2.55509970		 0.00002999		-0.00002999		-0.00037582
Ca		4.15255574		5.58724381		2.55509970		-0.00002999		 0.00002999		-0.00037582
Ca		0.48544420		4.96884345		2.45489957		-0.00048718		-0.00048718		 0.00039270
Ca		6.00775602		1.52435598		2.45489957		 0.00048718		 0.00048718		 0.00039270
Si		0.63695191		2.60964820		4.75950013		-0.00025952		 0.00025952		 0.00023489
Si		5.85624753		3.88355202		4.75950013		 0.00025952		-0.00025952		 0.00023489
Si		1.71915194		6.20255198		0.25049992		-0.00030012		-0.00030012		 0.00014522
Si		4.77404750		0.29064824		0.25049992		 0.00030012		 0.00030012		 0.00014522
Mg		0.00000000		0.00000000		0.00000000		0.00000000		0.00000000		 0.00034647
Mg		3.24660011		3.24660011		0.00000000		0.00000000		0.00000000		 0.00034647
O		3.86499968		-0.61840036		0.95190003		0.00000000		0.00000000		-0.00087368
O		-0.61840036		3.86499968		4.05810003		0.00000000		0.00000000		 0.00021135
O		0.63695191		2.60964820		1.30260008		-0.00010341		 0.00010341		-0.00029977
O		5.85624753		3.88355202		1.30260008		 0.00010341		-0.00010341		-0.00029977
O		1.71915194		6.20255198		3.70739998		 0.00020848		 0.00020848		 0.00015732
O		4.77404750		0.29064824		3.70739998		-0.00020848		-0.00020848		 0.00015732
O		0.39577629		1.29245614		4.05810003		 0.00006782		 0.00016027		-0.00022565
O		6.09742393		5.20074408		4.05810003		-0.00006782		-0.00016027		-0.00022565
O		0.25354436		6.88897573		0.95190003		-0.00054126		 0.00040460		 0.00009074
O		6.23965586		-0.39577629		0.95190003		 0.00054126		-0.00040460		 0.00009074
O		2.40557569		4.73694361		0.95190003		 0.00040460		-0.00054126		 0.00009074
O		4.08762375		1.75625582		0.95190003		-0.00040460		 0.00054126		 0.00009074
O		1.95414397		2.85082382		4.05810003		-0.00016027		-0.00006782		-0.00022565
O		4.53905547		3.64237562		4.05810003		 0.00016027		 0.00006782		-0.00022565
