# total energy = -22448.6349057 eV

CRYSTAL
PRIMVEC
		9.05300306		0.00000000		1.44848452
		0.00000000		7.67700190		0.00000000
		0.23086308		0.00000000		4.63799994
PRIMECORD
   40 1
Ca		6.71368373		0.51819827		1.48874460		 0.00009228		 0.00053201		-0.00006873
Ca		2.57018333		7.15880271		4.59773527		-0.00009228		-0.00053201		 0.00006873
Ca		2.45474904		4.35669647		2.27873531		-0.00009228		 0.00053201		 0.00006873
Ca		6.82911802		3.32030268		3.80774457		 0.00009228		-0.00053201		-0.00006873
Mg		2.28391164		1.25979583		2.22057351		-0.00020995		 0.00021792		-0.00008437
Mg		6.99995542		6.41720423		3.86590545		 0.00020995		-0.00021792		 0.00008437
Mg		6.88452204		5.09829586		1.54690640		 0.00020995		 0.00021792		 0.00008437
Mg		2.39934501		2.57870420		4.53957347		-0.00020995		-0.00021792		-0.00008437
Si		4.73109512		1.27438235		2.88588568		-0.00025393		-0.00001905		 0.00010288
Si		4.55277285		6.40261771		3.20059420		 0.00025393		 0.00001905		-0.00010288
Si		4.43733856		5.11288147		0.88159423		 0.00025393		-0.00001905		-0.00010288
Si		4.84652758		2.56411768		5.20488656		-0.00025393		 0.00001905		 0.00010288
Si		0.34688505		6.55846061		1.26742098		 0.00011391		 0.00027804		 0.00019917
Si		8.93698201		1.11853854		4.81905890		-0.00011391		-0.00027804		-0.00019917
Si		8.82154864		2.71996057		2.50005893		-0.00011391		 0.00027804		-0.00019917
Si		0.46231934		4.95703858		3.58642095		 0.00011391		-0.00027804		 0.00019917
O		3.59023123		1.29971577		1.09389732		 0.00000628		-0.00003702		 0.00017613
O		5.69363583		6.37728338		4.99258256		-0.00000628		 0.00003702		-0.00017613
O		5.57820246		5.13821581		2.67358259		-0.00000628		-0.00003702		-0.00017613
O		3.70566460		2.53878426		3.41289728		 0.00000628		 0.00003702		 0.00017613
O		3.56222346		3.70875885		0.96426707		 0.00012373		 0.00025474		-0.00020327
O		5.72164268		3.96824121		5.12221372		-0.00012373		-0.00025474		 0.00020327
O		5.60621023		7.54725888		2.80321284		-0.00012373		 0.00025474		 0.00020327
O		3.67765775		0.12974118		3.28326704		 0.00012373		-0.00025474		-0.00020327
O		5.63292712		2.25089623		2.13113183		-0.00030980		 0.00006961		 0.00008703
O		3.65093994		5.42610383		3.95534805		 0.00030980		-0.00006961		-0.00008703
O		3.53550657		6.08939718		1.63634808		 0.00030980		 0.00006961		-0.00008703
O		5.74836049		1.58760380		4.45013179		-0.00030980		-0.00006961		 0.00008703
O		1.34010421		2.69923323		1.21192711		 0.00051689		 0.00033798		 0.00025176
O		7.94376285		4.97776684		4.87455368		-0.00051689		-0.00033798		-0.00025176
O		7.82832948		6.53773235		2.55555280		-0.00051689		 0.00033798		-0.00025176
O		1.45553758		1.13926680		3.53092708		 0.00051689		-0.00033798		 0.00025176
O		1.00177762		0.22186454		1.07267489		-0.00006887		-0.00002384		-0.00001858
O		8.28208944		7.45513460		5.01380498		 0.00006887		 0.00002384		 0.00001858
O		8.16665606		4.06036549		2.69480502		 0.00006887		-0.00002384		 0.00001858
O		1.11721099		3.61663457		3.39167486		-0.00006887		 0.00002384		-0.00001858
O		0.99557995		5.44299248		0.47906679		-0.00000160		 0.00021672		-0.00021547
O		8.28828710		2.23400667		5.60741400		 0.00000160		-0.00021672		 0.00021547
O		8.17285373		1.60449336		3.28841403		 0.00000160		 0.00021672		 0.00021547
O		1.11101333		6.07250671		2.79806676		-0.00000160		-0.00021672		-0.00021547
