# total energy = -2552.84200694 eV	

CRYSTAL	
PRIMVEC	
		3.14200028		0.00000000		-0.12567989	
		-1.57099857		2.72105064		0.06283994	
		-0.19063923		0.00000000		4.76599960	
PRIMCOORD
   5 1	
Mg		0.00000000		0.00000000		0.00000000		0.00000000		0.00000000		0.00000000	
O		-0.04224590		1.81403513		1.05614592		 0.00010347		-0.00023178		 0.00087926	
O		1.42260618		0.90701709		3.64701405		-0.00010347		 0.00023178		-0.00087926	
H		-0.08203185		1.81403513		2.05081002		 0.00053606		 0.00065355		-0.00013836	
H		1.46239213		0.90701709		2.65235027		-0.00053606		-0.00065355		 0.00013836	
