# total energy = -2552.69557052 eV	

CRYSTAL	
PRIMVEC	
		3.14200054		0.00000000		0.37703931	
		-1.57099869		2.72105322		-0.18852123	
		0.57192127		0.00000000		4.76599897	
PRIMCOORD
   5 1	
Mg		0.00000000		0.00000000		0.00000000		0.00000000		0.00000000		0.00000000	
O		0.12673704		1.81403516		1.05614613		-0.00008268		-0.00027760		 0.00020329	
O		2.01618197		0.90701711		3.89837408		 0.00008268		 0.00027760		-0.00020329	
H		0.24609690		1.81403516		2.05080996		-0.00005862		-0.00025922		-0.00014777	
H		1.89682305		0.90701711		2.90370993		 0.00005862		 0.00025922		 0.00014777	
