# total energy = -2552.84196027 eV	

CRYSTAL	
PRIMVEC	
		3.14200028		0.00000000		0.12567989	
		-1.57099857		2.72105064		-0.06283994	
		0.19063923		0.00000000		4.76599960	
PRIMCOORD
   5 1	
Mg		0.00000000		0.00000000		0.00000000		0.00000000		0.00000000		0.00000000	
O		0.04224590		1.81403513		1.05614592		 0.00010700		-0.00013456		 0.00093159	
O		1.71939410		0.90701709		3.77269425		-0.00010700		 0.00013456		-0.00093159	
H		0.08203185		1.81403513		2.05081002		-0.00072857		 0.00058447		-0.00022917	
H		1.67960721		0.90701709		2.77803016		 0.00072857		-0.00058447		 0.00022917	
