# total energy = -20634.7113247 eV

CRYSTAL
PRIMVEC
		10.20141391		1.63223077		0.00000000
		0.95735788		5.98347901		0.00000000
		0.00000000		0.00000000		4.75534134
PRIMECORD
   28 1
Mg		0.00000000		0.00000000		0.00000000		0.00000000		-0.00000000		0.00000000
Mg		5.10070489		0.81611332		2.37766964		-0.00000000		0.00000000		0.00000000
Mg		0.47867791		2.99173950		0.00000000		0.00000000		0.00000000		0.00000000
Mg		5.57938383		3.80785282		2.37766964		-0.00000000		0.00000000		0.00000000
Mg		3.06819011		1.94848627		4.71491963		 0.00014814		 0.00011407		-0.00071503
Mg		8.09057755		5.66721938		0.04041964		-0.00014814		-0.00011407		 0.00071503
Mg		2.98987163		4.85110709		2.33725000		-0.00014814		-0.00011407		-0.00071503
Mg		8.16889500		2.76459855		2.41809031		 0.00014814		 0.00011407		 0.00071503
Si		1.19827234		1.64929889		2.02767670		 0.00001604		-0.00003462		-0.00011129
Si		9.96049636		5.96640573		2.72766258		-0.00001604		 0.00003462		 0.00011129
Si		4.85979043		5.15029447		4.40534737		-0.00001604		 0.00003462		-0.00011129
Si		6.29897723		2.46541221		0.34999294		 0.00001604		-0.00003462		 0.00011129
O		1.17378851		1.64538234		3.63926167		 0.00017321		 0.00044345		-0.00016973
O		9.98497915		5.97032434		1.11607760		-0.00017321		-0.00044345		 0.00016973
O		4.88427426		5.15421102		1.26159203		-0.00017321		-0.00044345		-0.00016973
O		6.27449444		2.46149463		3.49374828		 0.00017321		 0.00044345		 0.00016973
O		4.79834997		2.22531185		1.05140556		 0.00000685		-0.00016080		 0.00023041
O		6.36041769		5.39039380		3.70393475		-0.00000685		 0.00016080		-0.00023041
O		1.25971176		4.57428151		3.42907623		-0.00000685		 0.00016080		 0.00023041
O		9.89905487		3.04142413		1.32626408		 0.00000685		-0.00016080		-0.00023041
O		1.69155438		0.46421531		1.32103341		-0.00012046		-0.00012853		-0.00073536
O		9.46721329		7.15149137		3.43430690		 0.00012046		 0.00012853		 0.00073536
O		4.36650839		6.33537805		3.69870305		 0.00012046		 0.00012853		-0.00073536
O		6.79225927		1.28032657		1.05663726		-0.00012046		-0.00012853		 0.00073536
O		9.05210406		4.55705430		3.43430690		 0.00023847		-0.00030410		-0.00013067
O		2.10666360		3.05865238		1.32103341		-0.00023847		 0.00030410		 0.00013067
O		7.20736953		3.87476363		1.05663726		-0.00023847		 0.00030410		-0.00013067
O		3.95139813		3.74094098		3.69870305		 0.00023847		-0.00030410		 0.00013067
