# total energy = -49443.6264899 eV

CRYSTAL
PRIMVEC
		15.42639964		0.00000000		0.00000000
		0.00000000		5.10900759		0.00000000
		0.00000000		0.00000000		8.73299282
PRIMECORD
   70 1
Mg		2.67030978		1.67524067		0.04628537		-0.00032337		-0.00042395		 0.00020328
Mg		12.75608986		3.43375921		0.04628537		 0.00032337		 0.00042395		 0.00020328
Mg		10.38350959		0.87925850		4.41278486		-0.00032337		 0.00042395		 0.00020328
Mg		5.04289004		4.22974138		4.41278486		 0.00032337		-0.00042395		 0.00020328
Mg		2.73818594		4.27010147		1.53002271		 0.00038626		 0.00007568		 0.00006429
Mg		12.68821370		0.83889841		1.53002271		-0.00038626		-0.00007568		 0.00006429
Mg		10.45138575		3.39339758		5.89652066		 0.00038626		-0.00007568		 0.00006429
Mg		4.97501388		1.71560230		5.89652066		-0.00038626		 0.00007568		 0.00006429
Mg		4.99815348		1.76822483		2.83123952		-0.00023618		-0.00010272		-0.00009321
Mg		10.42824615		3.34077504		2.83123952		 0.00023618		 0.00010272		-0.00009321
Mg		12.71135330		0.78627433		7.19773901		-0.00023618		 0.00010272		-0.00009321
Mg		2.71504634		4.32272554		7.19773901		 0.00023618		-0.00010272		-0.00009321
Mg		0.00000000		2.55450071		7.23616309		0.00000000		0.00000000		-0.00002099
Mg		7.71319982		0.00000000		2.86966360		0.00000000		0.00000000		-0.00002099
Mg		0.00000000		2.55450071		1.63307106		0.00000000		0.00000000		 0.00035019
Mg		7.71319982		0.00000000		5.99957056		0.00000000		0.00000000		 0.00035019
Mg		0.00000000		0.00000000		5.78561256		0.00000000		0.00000000		-0.00018870
Mg		7.71319982		2.55450071		1.41911307		0.00000000		0.00000000		-0.00018870
Mg		0.00000000		0.00000000		3.01725105		0.00000000		0.00000000		-0.00037470
Mg		7.71319982		2.55450071		7.38375054		0.00000000		0.00000000		-0.00037470
Si		0.00000000		0.00000000		0.06724368		0.00000000		0.00000000		-0.00017507
Si		7.71319982		2.55450071		4.43374317		0.00000000		0.00000000		-0.00017507
Si		5.80958210		0.07203666		0.04453756		 0.00004662		-0.00012560		 0.00012160
Si		9.61681753		5.03696322		0.04453756		-0.00004662		 0.00012560		 0.00012160
Si		13.52278192		2.48246251		4.41103860		 0.00004662		 0.00012560		 0.00012160
Si		1.90361771		2.62653737		4.41103860		-0.00004662		-0.00012560		 0.00012160
O		6.40658377		3.62125938		8.67710914		 0.00028078		 0.00002249		-0.00038088
O		9.01981587		1.48774049		8.67710914		-0.00028078		-0.00002249		-0.00038088
O		14.11978359		4.04224120		4.31060965		 0.00028078		-0.00002249		-0.00038088
O		1.30661605		1.06675867		4.31060965		-0.00028078		 0.00002249		-0.00038088
O		1.20788709		3.54104828		0.04366442		-0.00044069		 0.00035487		-0.00029975
O		14.21851254		1.56795160		0.04366442		 0.00044069		-0.00035487		-0.00029975
O		8.92108691		4.12245231		4.41016546		-0.00044069		-0.00035487		-0.00029975
O		6.50531273		0.98654757		4.41016546		 0.00044069		 0.00035487		-0.00029975
O		3.84888671		0.11239829		3.01375851		-0.00038393		-0.00054897		-0.00034182
O		11.57751293		4.99660159		3.01375851		 0.00038393		 0.00054897		-0.00034182
O		11.56208653		2.44210242		7.38025800		-0.00038393		 0.00054897		-0.00034182
O		3.86431311		2.66689746		7.38025800		 0.00038393		-0.00054897		-0.00034182
O		3.93681719		2.61580831		1.41474585		-0.00011147		-0.00034219		 0.00020972
O		11.48958245		2.49319157		1.41474585		 0.00011147		 0.00034219		 0.00020972
O		11.65001700		5.04769228		5.78124535		-0.00011147		 0.00034219		 0.00020972
O		3.77638263		0.06130760		5.78124535		 0.00011147		-0.00034219		 0.00020972
O		1.17240637		0.73569580		1.33702148		-0.00034556		 0.00014290		 0.00053115
O		14.25399326		4.37330408		1.33702148		 0.00034556		-0.00014290		 0.00053115
O		8.88560619		1.81880337		5.70352252		-0.00034556		-0.00014290		 0.00053115
O		6.54079345		3.29019651		5.70352252		 0.00034556		 0.00014290		 0.00053115
O		6.63026656		3.30552263		3.16047283		 0.00024600		 0.00013651		-0.00012060
O		8.79613307		1.80347724		3.16047283		-0.00024600		-0.00013651		-0.00012060
O		14.34346638		4.35797641		7.52697232		 0.00024600		-0.00013651		-0.00012060
O		1.08293325		0.75102347		7.52697232		-0.00024600		 0.00013651		-0.00012060
O		6.39424265		0.78167727		1.39640695		 0.00051412		-0.00019127		-0.00026361
O		9.03215699		4.32732261		1.39640695		-0.00051412		 0.00019127		-0.00026361
O		14.10744247		1.77282344		5.76290645		 0.00051412		 0.00019127		-0.00026361
O		1.31895717		3.33617643		5.76290645		-0.00051412		-0.00019127		-0.00026361
O		1.37140693		3.49966542		3.03821090		-0.00031684		-0.00013015		 0.00032397
O		14.05499425		1.60933446		3.03821090		 0.00031684		 0.00013015		 0.00032397
O		9.08460675		4.16383517		7.40471039		-0.00031684		 0.00013015		 0.00032397
O		6.34179289		0.94516471		7.40471039		 0.00031684		-0.00013015		 0.00032397
O		4.00777863		0.02452335		0.06113174		-0.00046954		-0.00023710		 0.00058953
O		11.41862101		5.08447653		0.06113174		 0.00046954		 0.00023710		 0.00058953
O		11.72097844		2.52997736		4.42763123		-0.00046954		 0.00023710		 0.00058953
O		3.70542119		2.57902251		4.42763123		 0.00046954		-0.00023710		 0.00058953
H		4.62791989		3.06539993		0.87329928		-0.00050378		 0.00031930		 0.00021523
H		10.79847974		2.04359995		0.87329928		 0.00050378		-0.00031930		 0.00021523
H		12.34111971		4.59810066		5.23980032		-0.00050378		-0.00031930		 0.00021523
H		3.08527993		0.51090076		5.23980032		 0.00050378		 0.00031930		 0.00021523
H		4.16512790		0.91962013		3.92985062		 0.00042576		-0.00041202		-0.00055423
H		11.26127173		4.18937974		3.92985062		-0.00042576		 0.00041202		-0.00055423
H		11.87832772		1.63488058		8.29635012		 0.00042576		 0.00041202		-0.00055423
H		3.54807192		3.47411930		8.29635012		-0.00042576		-0.00041202		-0.00055423
