# total energy = -18391.0061784 eV	

CRYSTAL	
PRIMVEC	
		10.83205461		0.00000000		0.00000000	
		0.00000000		6.38939573		0.00000000	
		0.00000000		0.00000000		4.82809588	
PRIMCOORD
   28 1	
Mg		0.00000000		0.00000000		0.00000000		0.00000000		0.00000000		0.00000000	
Mg		5.41602730		0.00000000		2.41405010		0.00000000		-0.00000000		0.00000000	
Mg		0.00000000		3.19470003		0.00000000		0.00000000		-0.00000000		-0.00000000	
Mg		5.41602730		3.19470003		2.41405010		-0.00000000		0.00000000		-0.00000000	
Ca		2.99874600		1.59735002		4.71922723		 0.00061558		0.00000000		 0.00006018	
Ca		7.83330861		4.79205005		0.10887406		-0.00061558		0.00000000		-0.00006018	
Ca		2.41728131		4.79205005		2.30517712		-0.00061558		0.00000000		 0.00006018	
Ca		8.41477330		1.59735002		2.52292417		 0.00061558		0.00000000		-0.00006018	
Si		0.88346237		1.59735002		1.98425259		-0.00016973		0.00000000		-0.00013884	
Si		9.94859224		4.79205005		2.84384762		 0.00016973		0.00000000		 0.00013884	
Si		4.53256493		4.79205005		4.39830270		 0.00016973		0.00000000		-0.00013884	
Si		6.29948968		1.59735002		0.42979751		-0.00016973		0.00000000		 0.00013884	
O		0.84132568		1.59735002		3.60031390		 0.00050001		0.00000000		 0.00008341	
O		9.99073001		4.79205005		1.22778631		-0.00050001		0.00000000		-0.00008341	
O		4.57470162		4.79205005		1.18626379		-0.00050001		0.00000000		 0.00008341	
O		6.25735299		1.59735002		3.64183533		 0.00050001		0.00000000		-0.00008341	
O		4.86370084		1.59735002		1.18771312		-0.00059132		0.00000000		-0.00071189	
O		5.96835377		4.79205005		3.64038817		 0.00059132		0.00000000		 0.00071189	
O		0.55232646		4.79205005		3.60176323		 0.00059132		0.00000000		-0.00071189	
O		10.27972814		1.59735002		1.22633698		-0.00059132		0.00000000		 0.00071189	
O		1.59805302		0.29199645		1.31951973		-0.00034877		-0.00012975		-0.00064969	
O		9.23400159		6.09740362		3.50857940		 0.00034877		 0.00012975		 0.00064969	
O		3.81797429		6.09740362		3.73356984		 0.00034877		 0.00012975		-0.00064969	
O		7.01408032		0.29199645		1.09453037		-0.00034877		-0.00012975		 0.00064969	
O		9.23400159		3.48669540		3.50857940		 0.00034877		-0.00012975		 0.00064969	
O		1.59805302		2.90270359		1.31951973		-0.00034877		 0.00012975		-0.00064969	
O		7.01408032		2.90270359		1.09453037		-0.00034877		 0.00012975		 0.00064969	
O		3.81797429		3.48669540		3.73356984		 0.00034877		-0.00012975		-0.00064969	
