# total energy = -18390.1083594 eV	

CRYSTAL	
PRIMVEC	
		10.27656460		0.00000000		0.00000000	
		0.00000000		6.38940266		0.00000000	
		0.00000000		0.00000000		4.82810475	
PRIMCOORD
   28 1	
Mg		0.00000000		0.00000000		0.00000000		0.00000000		0.00000000		0.00000000	
Mg		5.13828230		0.00000000		2.41405032		0.00000000		0.00000000		0.00000000	
Mg		0.00000000		3.19470030		0.00000000		0.00000000		0.00000000		0.00000000	
Mg		5.13828230		3.19470030		2.41405032		-0.00000000		0.00000000		0.00000000	
Ca		2.84496414		1.59735015		4.71922660		 0.00040824		0.00000000		 0.00010995	
Ca		7.43160046		4.79204942		0.10887404		-0.00040824		0.00000000		-0.00010995	
Ca		2.29331816		4.79204942		2.30517731		-0.00040824		0.00000000		 0.00010995	
Ca		7.98324645		1.59735015		2.52292436		 0.00040824		0.00000000		-0.00010995	
Si		0.83815661		1.59735015		1.98425253		 0.00033773		0.00000000		-0.00024993	
Si		9.43840799		4.79204942		2.84384811		-0.00033773		0.00000000		 0.00024993	
Si		4.30012569		4.79204942		4.39830285		-0.00033773		0.00000000		-0.00024993	
Si		5.97643891		1.59735015		0.42979779		 0.00033773		0.00000000		 0.00024993	
O		0.79818077		1.59735015		3.60031425		-0.00016505		0.00000000		-0.00010805	
O		9.47838486		4.79204942		1.22778639		 0.00016505		0.00000000		 0.00010805	
O		4.34010153		4.79204942		1.18626393		 0.00016505		0.00000000		-0.00010805	
O		5.93646307		1.59735015		3.64183568		-0.00016505		0.00000000		 0.00010805	
O		4.61428130		1.59735015		1.18771293		 0.00076436		0.00000000		 0.00027363	
O		5.66228433		4.79204942		3.64038771		-0.00076436		0.00000000		-0.00027363	
O		0.52400203		4.79204942		3.60176325		-0.00076436		0.00000000		 0.00027363	
O		9.75256257		1.59735015		1.22633739		 0.00076436		0.00000000		-0.00027363	
O		1.51610158		0.29199625		1.31952014		 0.00003747		-0.00034554		-0.00012353	
O		8.76046303		6.09740332		3.50857947		-0.00003747		 0.00034554		 0.00012353	
O		3.62218073		6.09740332		3.73356944		-0.00003747		 0.00034554		-0.00012353	
O		6.65438490		0.29199625		1.09453018		 0.00003747		-0.00034554		 0.00012353	
O		8.76046303		3.48669553		3.50857947		-0.00003747		-0.00034554		 0.00012353	
O		1.51610158		2.90270405		1.31952014		 0.00003747		 0.00034554		-0.00012353	
O		6.65438490		2.90270405		1.09453018		 0.00003747		 0.00034554		 0.00012353	
O		3.62218073		3.48669553		3.73356944		-0.00003747		-0.00034554		-0.00012353	
