# total energy = -18390.8312629 eV	

CRYSTAL	
PRIMVEC	
		11.66528962		0.00000000		0.00000000	
		0.00000000		6.38939409		0.00000000	
		0.00000000		0.00000000		4.82810006	
PRIMCOORD
   28 1	
Mg		0.00000000		0.00000000		0.00000000		0.00000000		-0.00000000		0.00000000	
Mg		5.83264481		0.00000000		2.41405003		0.00000000		0.00000000		0.00000000	
Mg		0.00000000		3.19469938		0.00000000		0.00000000		0.00000000		0.00000000	
Mg		5.83264481		3.19469938		2.41405003		0.00000000		0.00000000		0.00000000	
Ca		3.22941878		1.59735027		4.71922675		 0.00034486		0.00000000		-0.00017777	
Ca		8.43587201		4.79204965		0.10887448		-0.00034486		-0.00000000		 0.00017777	
Ca		2.60322603		4.79204965		2.30517672		-0.00034486		0.00000000		-0.00017777	
Ca		9.06206359		1.59735027		2.52292334		 0.00034486		0.00000000		 0.00017777	
Si		0.95142102		1.59735027		1.98425293		 0.00058767		-0.00000000		 0.00075537	
Si		10.71386860		4.79204965		2.84384829		-0.00058767		0.00000000		-0.00075537	
Si		4.88122379		4.79204965		4.39830296		-0.00058767		0.00000000		 0.00075537	
Si		6.78406583		1.59735027		0.42979826		 0.00058767		-0.00000000		-0.00075537	
O		0.90604304		1.59735027		3.60031433		-0.00089526		0.00000000		 0.00065185	
O		10.75924774		4.79204965		1.22778573		 0.00089526		0.00000000		-0.00065185	
O		4.92660177		4.79204965		1.18626430		 0.00089526		-0.00000000		 0.00065185	
O		6.73868785		1.59735027		3.64183576		-0.00089526		0.00000000		-0.00065185	
O		5.23783169		1.59735027		1.18771313		 0.00076510		-0.00000000		 0.00064051	
O		6.42745793		4.79204965		3.64038810		-0.00076510		-0.00000000		-0.00064051	
O		0.59481312		4.79204965		3.60176316		-0.00076510		0.00000000		 0.00064051	
O		11.07047650		1.59735027		1.22633690		 0.00076510		0.00000000		-0.00064051	
O		1.72098018		0.29199620		1.31952040		 0.00032946		 0.00012133		 0.00050437	
O		9.94430944		6.09740372		3.50857966		-0.00032946		-0.00012133		-0.00050437	
O		4.11166463		6.09740372		3.73357043		-0.00032946		-0.00012133		 0.00050437	
O		7.55362615		0.29199620		1.09452963		 0.00032946		 0.00012133		-0.00050437	
O		9.94430944		3.48669557		3.50857966		-0.00032946		 0.00012133		-0.00050437	
O		1.72098018		2.90270435		1.31952040		 0.00032946		-0.00012133		 0.00050437	
O		7.55362615		2.90270435		1.09452963		 0.00032946		-0.00012133		-0.00050437	
O		4.11166463		3.48669557		3.73357043		-0.00032946		 0.00012133		 0.00050437	
