# total energy = -18391.0730522 eV	

CRYSTAL	
PRIMVEC	
		11.38754462		0.00000000		0.00000000	
		0.00000000		6.38940325		0.00000000	
		0.00000000		0.00000000		4.82810255	
PRIMCOORD
   28 1	
Mg		0.00000000		0.00000000		0.00000000		0.00000000		0.00000000		-0.00000000	
Mg		5.69377231		0.00000000		2.41405014		-0.00000000		0.00000000		-0.00000000	
Mg		0.00000000		3.19469935		0.00000000		0.00000000		0.00000000		-0.00000000	
Mg		5.69377231		3.19469935		2.41405014		0.00000000		0.00000000		-0.00000000	
Ca		3.15252785		1.59735024		4.71922738		 0.00053424		0.00000000		-0.00003223	
Ca		8.23501790		4.79204959		0.10887404		-0.00053424		0.00000000		 0.00003223	
Ca		2.54124446		4.79204959		2.30517724		-0.00053424		0.00000000		-0.00003223	
Ca		8.84630016		1.59735024		2.52292417		 0.00053424		0.00000000		 0.00003223	
Si		0.92876814		1.59735024		1.98425346		-0.00034642		0.00000000		 0.00055805	
Si		10.45877648		4.79204959		2.84384796		 0.00034642		0.00000000		-0.00055805	
Si		4.76500417		4.79204959		4.39830246		 0.00034642		0.00000000		 0.00055805	
Si		6.62254045		1.59735024		0.42979782		-0.00034642		0.00000000		-0.00055805	
O		0.88447059		1.59735024		3.60031344		 0.00035900		0.00000000		 0.00078627	
O		10.50307516		4.79204959		1.22778570		-0.00035900		0.00000000		-0.00078627	
O		4.80930172		4.79204959		1.18626444		-0.00035900		0.00000000		 0.00078627	
O		6.57824290		1.59735024		3.64183584		 0.00035900		0.00000000		-0.00078627	
O		5.11312141		1.59735024		1.18771293		 0.00010293		0.00000000		 0.00080465	
O		6.27442321		4.79204959		3.64038734		-0.00010293		0.00000000		-0.00080465	
O		0.58065090		4.79204959		3.60176307		-0.00010293		0.00000000		 0.00080465	
O		10.80689485		1.59735024		1.22633721		 0.00010293		0.00000000		-0.00080465	
O		1.68000446		0.29199600		1.31952034		 0.00059312		-0.00004515		 0.00035284	
O		9.70754016		6.09740383		3.50857993		-0.00059312		 0.00004515		-0.00035284	
O		4.01376785		6.09740383		3.73356934		-0.00059312		 0.00004515		 0.00035284	
O		7.37377677		0.29199600		1.09452979		 0.00059312		-0.00004515		-0.00035284	
O		9.70754016		3.48669535		3.50857993		-0.00059312		-0.00004515		-0.00035284	
O		1.68000446		2.90270334		1.31952034		 0.00059312		 0.00004515		 0.00035284	
O		7.37377677		2.90270334		1.09452979		 0.00059312		 0.00004515		-0.00035284	
O		4.01376785		3.48669535		3.73356934		-0.00059312		-0.00004515		 0.00035284	
