# total energy = -9137.28658463 eV

CRYSTAL
PRIMVEC
		5.29861782		0.00052797		-0.00004266
		-2.64885294		4.58829959		0.00026665
		-0.00006933		0.00046397		6.06141276
PRIMECORD
   14 1
Mg		1.87459258		0.00063836		2.97231003		 0.00011980		 0.00002061		 0.00039783
Mg		-0.93698191		1.62335443		2.97250415		-0.00003864		 0.00006154		 0.00041580
Mg		1.71206195		2.96549499		2.97241563		-0.00007835		-0.00008675		 0.00039484
Si		0.00019625		3.05907314		0.17782194		-0.00003900		 0.00000245		-0.00011253
Si		2.64956436		1.52985788		0.17771901		-0.00001812		 0.00000625		-0.00011265
O		0.00009546		3.05901927		1.77257656		-0.00001573		-0.00001225		-0.00013168
O		2.64967049		1.52985948		1.77247310		 0.00001791		-0.00000964		-0.00013206
O		2.47650692		0.00082448		5.68335215		-0.00002103		 0.00001278		 0.00002621
O		-1.23821586		2.14520445		5.68327642		 0.00002957		 0.00003059		-0.00000644
O		1.41116717		2.44460598		5.68358147		 0.00003545		 0.00000520		 0.00003332
O		3.65313250		0.00067516		3.80584402		 0.00007094		 0.00000180		-0.00035724
O		-1.82654172		3.16412790		3.80586055		-0.00006166		 0.00010779		-0.00039070
O		0.82292345		1.42552094		3.80608560		-0.00002998		-0.00004572		-0.00033135
O		0.00016852		-0.00078875		2.13683537		 0.00002885		-0.00009465		 0.00030667
