# total energy = -9140.08493834 eV

CRYSTAL
PRIMVEC
		5.43708382		-0.17394112		-0.01176993
		-2.87828925		4.97481941		0.00803150
		0.04631710		0.00694357		9.48957694
PRIMECORD
   14 1
Mg		1.99754862		-0.12081751		4.00210854		-0.00070863		 0.00025100		 0.00039297
Mg		-1.11399910		1.94891006		3.60379639		 0.00065373		 0.00003335		 0.00032159
Mg		1.69248451		3.02447797		4.00097901		-0.00034777		 0.00002837		 0.00068438
Si		0.03005892		3.22229653		1.00560322		-0.00009680		-0.00038524		-0.00037145
Si		2.64964222		1.41677856		0.99876898		 0.00008718		-0.00000207		-0.00030355
O		0.15508310		3.28141656		2.63747818		 0.00060165		-0.00035681		-0.00047758
O		2.53684448		1.33588229		2.63067007		 0.00031639		-0.00018230		-0.00041720
O		2.81578916		-0.16401854		9.93364622		-0.00031602		-0.00010903		 0.00036968
O		-1.31960810		2.39021685		10.12842977		-0.00022031		 0.00016690		 0.00010492
O		1.39357841		2.33482192		9.94034020		-0.00013620		 0.00002345		 0.00003954
O		4.04113969		-0.04427616		4.55548085		-0.00051535		-0.00003956		-0.00002220
O		-1.93897095		3.37964135		4.48495886		-0.00010172		 0.00053013		-0.00024860
O		0.60740466		1.28999769		4.56071252		 0.00014658		 0.00004873		 0.00023691
O		-0.42122591		0.75881812		5.47786367		 0.00063726		-0.00000695		-0.00030941
