# total energy = -9137.61155632 eV

CRYSTAL
PRIMVEC
		5.35502496		-0.00061329		-0.00079995
		-2.67804578		4.63571529		0.00005333
		-0.00129592		-0.00064529		6.21924288
PRIMECORD
   14 1
Mg		1.89907265		-0.00084848		3.04072655		-0.00010210		-0.00003311		 0.00012718
Mg		-0.95101836		1.64338571		3.04124279		 0.00001413		-0.00019005		 0.00016862
Mg		1.72683329		2.99153550		3.04087908		 0.00006389		 0.00020363		 0.00020707
Si		-0.00033278		3.08997734		0.20122474		 0.00000561		-0.00003704		 0.00032051
Si		2.67712157		1.54501373		0.20093996		-0.00002065		 0.00003122		 0.00032039
O		-0.00029278		3.08977468		1.80618033		 0.00005729		-0.00004145		-0.00050693
O		2.67698024		1.54517266		1.80589501		 0.00000314		 0.00006797		-0.00050676
O		2.58386180		-0.00104580		5.86356860		-0.00000055		-0.00001508		 0.00008248
O		-1.29444008		2.23735495		5.86362140		-0.00005146		 0.00001037		 0.00003198
O		1.38306067		2.39655779		5.86293184		-0.00005469		-0.00004934		-0.00001182
O		3.69078668		-0.00087621		3.86506324		-0.00008662		-0.00000686		 0.00004224
O		-1.84766680		3.19629869		3.86504991		-0.00004814		 0.00004352		-0.00006524
O		0.82963609		1.43761139		3.86437315		-0.00010075		-0.00015252		-0.00017035
O		0.00199774		0.00096527		2.22673801		 0.00032090		 0.00016873		-0.00003937
