# total energy = -18355.4922139 eV	

CRYSTAL	
PRIMVEC	
		4.81499975		0.00000000		0.00000000	
		0.00000000		11.07999815		0.00000000	
		0.00000000		0.00000000		5.73299871	
PRIMCOORD
   28 1	
Mg		0.00000000		0.00000000		0.00000000		0.00000000		0.00000000		-0.00000000	
Mg		2.40749987		5.53999956		0.00000000		0.00000000		0.00000000		-0.00000000	
Mg		0.00000000		0.00000000		2.86649984		0.00000000		0.00000000		0.00000000	
Mg		2.40749987		5.53999956		2.86649984		0.00000000		0.00000000		0.00000000	
Ca		4.73314475		2.84756003		1.43325016		-0.00006794		-0.00038477		0.00000000	
Ca		0.08185500		8.23243956		4.29974999		 0.00006794		 0.00038477		0.00000000	
Ca		2.32564488		2.69244000		4.29974999		-0.00006794		 0.00038477		0.00000000	
Ca		2.48935487		8.38755959		1.43325016		 0.00006794		-0.00038477		-0.00000000	
Si		1.94044490		0.95287978		1.43325016		 0.00047888		 0.00007194		0.00000000	
Si		2.87455485		10.12711933		4.29974999		-0.00047888		-0.00007194		0.00000000	
Si		4.34794477		4.58711977		4.29974999		 0.00047888		-0.00007194		0.00000000	
Si		0.46705498		6.49287982		1.43325016		-0.00047888		 0.00007194		0.00000000	
O		3.67865981		0.74235981		1.43325016		 0.00005784		 0.00029909		-0.00000000	
O		1.13633994		10.33763930		4.29974999		-0.00005784		-0.00029909		0.00000000	
O		1.27115993		4.79763975		4.29974999		 0.00005784		-0.00029909		-0.00000000	
O		3.54383981		6.28235985		1.43325016		-0.00005784		 0.00029909		-0.00000000	
O		3.54383981		5.14111968		1.43325016		 0.00084565		 0.00032532		0.00000000	
O		1.27115993		5.93887991		4.29974999		-0.00084565		-0.00032532		0.00000000	
O		1.13633994		0.39887988		4.29974999		 0.00084565		-0.00032532		0.00000000	
O		3.67865981		10.68111924		1.43325016		-0.00084565		 0.00032532		-0.00000000	
O		1.20374994		1.69524007		0.17198986		-0.00018476		 0.00067115		 0.00072112	
O		3.61124981		9.38475952		5.56100981		 0.00018476		-0.00067115		-0.00072112	
O		3.61124981		3.84475996		5.56100981		-0.00018476		-0.00067115		-0.00072112	
O		1.20374994		7.23523963		0.17198986		 0.00018476		 0.00067115		 0.00072112	
O		3.61124981		9.38475952		3.03848970		 0.00018476		-0.00067115		 0.00072112	
O		1.20374994		1.69524007		2.69450997		-0.00018476		 0.00067115		-0.00072112	
O		1.20374994		7.23523963		2.69450997		 0.00018476		 0.00067115		-0.00072112	
O		3.61124981		3.84475996		3.03848970		-0.00018476		-0.00067115		 0.00072112	
