# total energy = -18390.3873334 eV	

CRYSTAL	
PRIMVEC	
		4.81499975		0.00000000		0.00000000	
		0.00000000		11.07999815		0.00000000	
		0.00000000		0.00000000		6.84774819	
PRIMCOORD
   28 1	
Mg		0.00000000		0.00000000		0.00000000		-0.00000000		-0.00000000		0.00000000	
Mg		2.40749987		5.53999956		0.00000000		-0.00000000		-0.00000000		0.00000000	
Mg		0.00000000		0.00000000		3.42387506		0.00000000		0.00000000		0.00000000	
Mg		2.40749987		5.53999956		3.42387506		0.00000000		0.00000000		0.00000000	
Ca		4.73314475		2.84756003		1.71193705		-0.00068043		 0.00015448		0.00000000	
Ca		0.08185500		8.23243956		5.13581162		 0.00068043		-0.00015448		0.00000000	
Ca		2.32564488		2.69244000		5.13581162		-0.00068043		-0.00015448		0.00000000	
Ca		2.48935487		8.38755959		1.71193705		 0.00068043		 0.00015448		0.00000000	
Si		1.94044490		0.95287978		1.71193705		 0.00047030		-0.00032811		0.00000000	
Si		2.87455485		10.12711933		5.13581162		-0.00047030		 0.00032811		0.00000000	
Si		4.34794477		4.58711977		5.13581162		 0.00047030		 0.00032811		0.00000000	
Si		0.46705498		6.49287982		1.71193705		-0.00047030		-0.00032811		0.00000000	
O		3.67865981		0.74235981		1.71193705		 0.00083283		-0.00052659		0.00000000	
O		1.13633994		10.33763930		5.13581162		-0.00083283		 0.00052659		0.00000000	
O		1.27115993		4.79763975		5.13581162		 0.00083283		 0.00052659		0.00000000	
O		3.54383981		6.28235985		1.71193705		-0.00083283		-0.00052659		0.00000000	
O		3.54383981		5.14111968		1.71193705		-0.00024222		 0.00013317		0.00000000	
O		1.27115993		5.93887991		5.13581162		 0.00024222		-0.00013317		0.00000000	
O		1.13633994		0.39887988		5.13581162		-0.00024222		-0.00013317		-0.00000000	
O		3.67865981		10.68111924		1.71193705		 0.00024222		 0.00013317		-0.00000000	
O		1.20374994		1.69524007		0.20543196		 0.00067402		 0.00010976		-0.00046047	
O		3.61124981		9.38475952		6.64231767		-0.00067402		-0.00010976		 0.00046047	
O		3.61124981		3.84475996		6.64231767		 0.00067402		-0.00010976		 0.00046047	
O		1.20374994		7.23523963		0.20543196		-0.00067402		 0.00010976		-0.00046047	
O		3.61124981		9.38475952		3.62930702		-0.00067402		-0.00010976		-0.00046047	
O		1.20374994		1.69524007		3.21844165		 0.00067402		 0.00010976		 0.00046047	
O		1.20374994		7.23523963		3.21844165		-0.00067402		 0.00010976		 0.00046047	
O		3.61124981		3.84475996		3.62930702		 0.00067402		-0.00010976		-0.00046047	
