# total energy = -18357.8545716 eV	

CRYSTAL	
PRIMVEC	
		4.81499975		0.00000000		0.00000000	
		0.00000000		11.07999815		0.00000000	
		0.00000000		0.00000000		6.05150131	
PRIMCOORD
   28 1	
Mg		0.00000000		0.00000000		0.00000000		0.00000000		-0.00000000		0.00000000	
Mg		2.40749987		5.53999956		0.00000000		0.00000000		0.00000000		0.00000000	
Mg		0.00000000		0.00000000		3.02574969		0.00000000		0.00000000		0.00000000	
Mg		2.40749987		5.53999956		3.02574969		0.00000000		0.00000000		-0.00000000	
Ca		4.73314475		2.84756003		1.51287485		 0.00033586		 0.00025695		0.00000000	
Ca		0.08185500		8.23243956		4.53862454		-0.00033586		-0.00025695		0.00000000	
Ca		2.32564488		2.69244000		4.53862454		 0.00033586		-0.00025695		-0.00000000	
Ca		2.48935487		8.38755959		1.51287485		-0.00033586		 0.00025695		-0.00000000	
Si		1.94044490		0.95287978		1.51287485		-0.00020002		-0.00038947		-0.00000000	
Si		2.87455485		10.12711933		4.53862454		 0.00020002		 0.00038947		0.00000000	
Si		4.34794477		4.58711977		4.53862454		-0.00020002		 0.00038947		0.00000000	
Si		0.46705498		6.49287982		1.51287485		 0.00020002		-0.00038947		-0.00000000	
O		3.67865981		0.74235981		1.51287485		-0.00041872		 0.00020047		0.00000000	
O		1.13633994		10.33763930		4.53862454		 0.00041872		-0.00020047		-0.00000000	
O		1.27115993		4.79763975		4.53862454		-0.00041872		-0.00020047		0.00000000	
O		3.54383981		6.28235985		1.51287485		 0.00041872		 0.00020047		0.00000000	
O		3.54383981		5.14111968		1.51287485		-0.00033362		-0.00007064		0.00000000	
O		1.27115993		5.93887991		4.53862454		 0.00033362		 0.00007064		0.00000000	
O		1.13633994		0.39887988		4.53862454		-0.00033362		 0.00007064		-0.00000000	
O		3.67865981		10.68111924		1.51287485		 0.00033362		-0.00007064		-0.00000000	
O		1.20374994		1.69524007		0.18154475		 0.00002733		 0.00028472		 0.00056430	
O		3.61124981		9.38475952		5.86995464		-0.00002733		-0.00028472		-0.00056430	
O		3.61124981		3.84475996		5.86995464		 0.00002733		-0.00028472		-0.00056430	
O		1.20374994		7.23523963		0.18154475		-0.00002733		 0.00028472		 0.00056430	
O		3.61124981		9.38475952		3.20729493		-0.00002733		-0.00028472		 0.00056430	
O		1.20374994		1.69524007		2.84420494		 0.00002733		 0.00028472		-0.00056430	
O		1.20374994		7.23523963		2.84420494		-0.00002733		 0.00028472		-0.00056430	
O		3.61124981		3.84475996		3.20729493		 0.00002733		-0.00028472		 0.00056430	
