# total energy = -66814.0231434 eV

CRYSTAL
PRIMVEC
		18.34339846		0.00000000		0.00000000
		0.00000000		6.73129350		-0.26924440
		0.00000000		-0.43538056		10.88440400
PRIMECORD
   112 1
Ca		14.17192622		6.62327289		2.25164666		 0.00005918		 0.00028369		 0.00029525
Ca		4.17147224		-0.32734895		8.36350193		-0.00005918		-0.00028369		-0.00029525
Ca		4.17147224		-0.09362287		2.52032058		-0.00057998		-0.00001679		 0.00019146
Ca		14.17192622		6.38954498		8.09482618		 0.00057998		 0.00001679		-0.00019146
Ca		13.34317147		3.24158301		2.78725372		-0.00057998		 0.00001679		-0.00019146
Ca		5.00022699		3.05433910		7.82789488		 0.00057998		-0.00001679		 0.00019146
Ca		5.00022699		3.25598808		2.78667590		 0.00005918		-0.00028369		-0.00029525
Ca		13.34317147		3.03993403		7.82847086		-0.00005918		 0.00028369		 0.00029525
Ca		7.55546239		0.73874919		8.10590926		 0.00019682		-0.00014401		 0.00050728
Ca		10.78793607		5.55717475		2.50923750		-0.00019682		 0.00014401		-0.00050728
Ca		10.78793607		5.34066946		7.92183326		 0.00028449		-0.00040561		-0.00031951
Ca		7.55546239		0.95525449		2.69331534		-0.00028449		 0.00040561		 0.00031951
Ca		1.61623684		4.10321462		8.00088963		 0.00028449		 0.00040561		 0.00031951
Ca		16.72716162		2.19270748		2.61425896		-0.00028449		-0.00040561		-0.00031951
Ca		16.72716162		1.97383589		8.08606537		 0.00019682		 0.00014401		-0.00050728
Ca		1.61623684		4.32208805		2.52908322		-0.00019682		-0.00014401		 0.00050728
Ca		6.10413271		5.40388814		-0.21615677		 0.00036163		 0.00045362		-0.00034632
Ca		12.23926575		1.32741269		-0.05309680		-0.00036163		-0.00045362		 0.00034632
Ca		3.06756652		1.82054928		5.36067110		-0.00036163		 0.00045362		-0.00034632
Ca		15.27583194		4.47537466		5.25447750		 0.00036163		-0.00045362		 0.00034632
Ca		12.35024332		0.93874910		5.39594362		 0.00015872		-0.00024571		 0.00036967
Ca		5.99315515		5.35717301		5.21920497		-0.00015872		 0.00024571		-0.00036967
Ca		15.16485438		4.52208613		-0.18088242		-0.00015872		-0.00024571		 0.00036967
Ca		3.17854409		2.20921287		-0.08836932		 0.00015872		 0.00024571		-0.00036967
Ca		9.17169923		3.36565042		-0.13462587		0.00000000		0.00000000		0.00000000
Ca		0.00000000		-0.21768845		5.44220017		0.00000000		0.00000000		0.00000000
Ca		9.17169923		3.14796197		5.30757430		-0.00000000		0.00000000		0.00000000
Ca		0.00000000		0.00000000		0.00000000		0.00000000		0.00000000		0.00000000
Si		7.68918577		4.51518901		7.98897376		-0.00000712		 0.00001670		-0.00030464
Si		10.65421086		1.78073310		2.62617483		 0.00000712		-0.00001670		 0.00030464
Si		10.65421086		1.56149647		8.10712176		-0.00044341		-0.00019606		-0.00032128
Si		7.68918577		4.73442747		2.50802684		 0.00044341		 0.00019606		 0.00032128
Si		1.48251346		1.15109044		8.08485104		-0.00044341		 0.00019606		 0.00032128
Si		16.86088500		5.14483350		2.53029572		 0.00044341		-0.00019606		-0.00032128
Si		16.86088500		4.92869507		7.93374729		-0.00000712		-0.00001670		 0.00030464
Si		1.48251346		1.36722887		2.68139947		 0.00000712		 0.00001670		-0.00030464
Si		12.17689820		4.73318196		5.24416484		-0.00022007		 0.00020796		 0.00063117
Si		6.16650026		1.56274015		5.37098376		 0.00022007		-0.00020796		-0.00063117
Si		15.33819949		1.58522182		-0.06340946		 0.00022007		 0.00020796		 0.00063117
Si		3.00519897		5.14607902		-0.20584228		-0.00022007		-0.00020796		-0.00063117
Si		6.20337049		1.90361186		-0.07614345		-0.00001954		-0.00041825		 0.00011567
Si		12.14002797		4.82768898		-0.19310829		 0.00001954		 0.00041825		-0.00011567
Si		2.96832874		5.05157199		5.23142901		 0.00001954		-0.00041825		 0.00011567
Si		15.37506972		1.24435012		5.38371958		-0.00001954		 0.00041825		-0.00011567
Mg		9.17169923		-0.21768845		5.44220017		-0.00000000		0.00000000		0.00000000
Mg		0.00000000		3.36565042		-0.13462587		0.00000000		0.00000000		0.00000000
Mg		9.17169923		0.00000000		0.00000000		-0.00000000		0.00000000		0.00000000
Mg		0.00000000		3.14796197		5.30757430		0.00000000		0.00000000		0.00000000
O		5.29573914		1.67682875		1.25869832		 0.00009730		 0.00016267		 0.00074015
O		13.04765933		4.61909519		9.35645027		-0.00009730		-0.00016267		-0.00074015
O		13.04765933		4.94823996		1.12784202		-0.00038589		-0.00046160		 0.00021729
O		5.29573914		1.34768398		9.48730657		 0.00038589		 0.00046160		-0.00021729
O		3.87596009		4.93102101		3.91048054		-0.00038589		 0.00046160		-0.00021729
O		14.46743837		1.36490110		6.70466806		 0.00038589		-0.00046160		 0.00021729
O		14.46743837		1.47113322		4.04887414		 0.00009730		-0.00016267		-0.00074015
O		3.87596009		4.82479072		6.56627262		-0.00009730		 0.00016267		 0.00074015
O		12.78168005		5.53853052		3.91117208		-0.00040193		 0.00000010		 0.00012492
O		5.56171841		0.75739342		6.70397468		 0.00040193		-0.00000010		-0.00012492
O		5.56171841		0.86162244		4.09824907		 0.00026298		 0.00019649		-0.00029221
O		12.78168005		5.43430150		6.51689953		-0.00026298		-0.00019649		 0.00029221
O		14.73341764		2.28633953		1.20932523		 0.00026298		-0.00019649		 0.00029221
O		3.60998082		4.00958442		9.40582336		-0.00026298		 0.00019649		-0.00029221
O		3.60998082		4.34073228		1.12714864		-0.00040193		-0.00000010		-0.00012492
O		14.73341764		1.95519166		9.48799812		 0.00040193		 0.00000010		 0.00012492
O		8.72595465		4.88178733		9.15685575		-0.00031797		-0.00028268		-0.00026745
O		9.61744381		1.41413661		1.45829284		 0.00031797		 0.00028268		 0.00026745
O		9.61744381		1.10014349		9.30812092		-0.00023434		-0.00040118		 0.00017052
O		8.72595465		5.19578045		1.30702767		 0.00023434		 0.00040118		-0.00017052
O		0.44574458		1.61244342		6.88385371		-0.00023434		 0.00040118		-0.00017052
O		17.89765388		4.68348052		3.73129672		 0.00023434		-0.00040118		 0.00017052
O		17.89765388		4.56209858		6.76586714		-0.00031797		 0.00028268		 0.00026745
O		0.44574458		1.73382536		3.84928146		 0.00031797		-0.00028268		-0.00026745
O		6.21712804		5.11073312		8.33919326		-0.00000532		-0.00013719		 0.00041799
O		12.12627042		1.18519082		2.27595350		 0.00000532		 0.00013719		-0.00041799
O		12.12627042		0.93598108		8.50618423		-0.00011530		 0.00043998		-0.00019176
O		6.21712804		5.35994286		2.10896437		 0.00011530		-0.00043998		 0.00019176
O		2.95457119		1.77660583		7.68579040		-0.00011530		-0.00043998		 0.00019176
O		15.38882727		4.51931811		2.92935819		 0.00011530		 0.00043998		-0.00019176
O		15.38882727		4.33315096		7.58352779		-0.00000532		 0.00013719		-0.00041799
O		2.95457119		1.96277115		3.03162080		 0.00000532		-0.00013719		 0.00041799
O		6.89711782		3.33805278		-0.13352160		-0.00017753		-0.00061794		-0.00032960
O		11.44628064		3.39324806		-0.13573014		 0.00017753		 0.00061794		 0.00032960
O		2.27458141		6.48601291		5.17405270		 0.00017753		-0.00061794		-0.00032960
O		16.06881705		-0.19009080		5.44109589		-0.00017753		 0.00061794		 0.00032960
O		7.54830847		2.98189185		7.69517305		 0.00017265		 0.00023631		 0.00000636
O		10.79508999		3.31403209		2.91997554		-0.00017265		-0.00023631		-0.00000636
O		10.79508999		3.12324974		7.68951962		 0.00004306		-0.00004974		-0.00008422
O		7.54830847		3.17267420		2.92562898		-0.00004306		 0.00004974		 0.00008422
O		1.62339076		6.32063617		8.23320327		 0.00004306		 0.00004974		 0.00008422
O		16.72000770		-0.02471223		2.38194532		-0.00004306		-0.00004974		-0.00008422
O		16.72000770		-0.26930677		8.49680158		 0.00017265		-0.00023631		-0.00000636
O		1.62339076		6.56523071		2.11834702		-0.00017265		 0.00023631		 0.00000636
O		7.29700391		0.70342164		-0.02813694		 0.00047426		-0.00029432		-0.00043092
O		11.04639455		6.02787920		-0.24111480		-0.00047426		 0.00029432		 0.00043092
O		1.87469532		3.85138361		5.27943736		-0.00047426		-0.00029432		-0.00043092
O		16.46870314		2.44454033		5.33571124		 0.00047426		 0.00029432		 0.00043092
O		10.57313487		4.97752887		5.23439147		-0.00046384		-0.00005623		 0.00004416
O		7.77026359		1.31839508		5.38075712		 0.00046384		 0.00005623		-0.00004416
O		16.94196282		1.82956689		-0.07318282		 0.00046384		-0.00005623		 0.00004416
O		1.40143564		4.90173211		-0.19606892		-0.00046384		 0.00005623		-0.00004416
O		12.74132457		3.23277634		5.30418260		-0.00086926		-0.00005281		 0.00019866
O		5.60207389		3.06314760		5.31096599		 0.00086926		 0.00005281		-0.00019866
O		14.77377312		0.08481437		-0.00339353		 0.00086926		-0.00005281		 0.00019866
O		3.56962534		6.64648463		-0.26585821		-0.00086926		 0.00005281		-0.00019866
O		8.14997194		5.38691133		6.62637660		 0.00007621		 0.00051224		-0.00025699
O		10.19342652		0.90901261		3.98877016		-0.00007621		-0.00051224		 0.00025699
O		10.19342652		0.79616403		6.81000686		 0.00013619		-0.00010726		 0.00015106
O		8.14997194		5.49975992		3.80514174		-0.00013619		 0.00010726		-0.00015106
O		1.02172729		1.91642105		9.38196594		 0.00013619		 0.00010726		-0.00015106
O		17.32167117		4.37950106		1.23318082		-0.00013619		-0.00010726		 0.00015106
O		17.32167117		4.05697459		9.29634446		 0.00007621		-0.00051224		 0.00025699
O		1.02172729		2.23894936		1.31880230		-0.00007621		 0.00051224		-0.00025699
