# total energy = -66796.9390486 eV

CRYSTAL
PRIMVEC
		18.34339846		0.00000000		0.00000000
		0.00000000		6.73129350		1.07701430
		0.00000000		1.74150391		10.88440400
PRIMECORD
   112 1
Ca		14.17192622		7.12739534		3.59646540		 0.00010204		-0.00002468		-0.00062971
Ca		4.17147224		1.34540940		8.36494189		-0.00010204		 0.00002468		 0.00062971
Ca		4.17147224		0.41049958		2.52176237		-0.00018731		 0.00024806		 0.00065738
Ca		14.17192622		8.06230333		9.43964492		 0.00018731		-0.00024806		-0.00065738
Ca		13.34317147		3.82590279		3.45894127		-0.00018731		-0.00024806		-0.00065738
Ca		5.00022699		4.64690195		8.50246602		 0.00018731		 0.00024806		 0.00065738
Ca		5.00022699		3.84030603		3.46124704		 0.00010204		 0.00002468		 0.00062971
Ca		13.34317147		4.63249688		8.50016025		-0.00010204		-0.00002468		-0.00062971
Ca		7.55546239		2.36844825		8.31884860		 0.00010200		 0.00013925		-0.00023712
Ca		10.78793607		6.10435466		3.64256053		-0.00010200		-0.00013925		 0.00023712
Ca		10.78793607		6.97037035		9.05515445		 0.00085108		-0.00027678		-0.00036869
Ca		7.55546239		1.50243439		2.90625284		-0.00085108		 0.00027678		 0.00036869
Ca		1.61623684		5.73883493		8.88695649		 0.00085108		 0.00027678		 0.00036869
Ca		16.72716162		2.73396798		3.07445080		-0.00085108		-0.00027678		-0.00036869
Ca		16.72716162		3.60945620		8.54625721		 0.00010200		-0.00013925		 0.00023712
Ca		1.61623684		4.86334671		3.41515191		-0.00010200		 0.00013925		-0.00023712
Ca		6.10413271		5.40388814		0.86462159		 0.00022270		 0.00035364		 0.00061390
Ca		12.23926575		1.32741269		0.21238537		-0.00022270		-0.00035364		-0.00061390
Ca		3.06756652		2.90898968		5.76831828		-0.00022270		 0.00035364		 0.00061390
Ca		15.27583194		5.56381323		6.19308902		 0.00022270		-0.00035364		-0.00061390
Ca		12.35024332		2.02718950		5.62723003		-0.00028645		-0.00010099		 0.00002622
Ca		5.99315515		6.44561341		6.33417727		 0.00028645		 0.00010099		-0.00002622
Ca		15.16485438		4.52208613		0.72353334		 0.00028645		-0.00010099		 0.00002622
Ca		3.17854409		2.20921287		0.35347362		-0.00028645		 0.00010099		-0.00002622
Ca		9.17169923		3.36565042		0.53850348		-0.00000000		-0.00000000		0.00000000
Ca		0.00000000		0.87075195		5.44220017		0.00000000		0.00000000		0.00000000
Ca		9.17169923		4.23640237		5.98070365		0.00000000		0.00000000		0.00000000
Ca		0.00000000		0.00000000		0.00000000		0.00000000		0.00000000		0.00000000
Si		7.68918577		6.15172465		8.95747402		 0.00027658		 0.00000538		-0.00011861
Si		10.65421086		2.32107826		3.00393511		-0.00027658		-0.00000538		 0.00011861
Si		10.65421086		3.19803028		8.48488204		-0.00032927		-0.00002408		-0.00001924
Si		7.68918577		5.27477263		3.47652526		 0.00032927		 0.00002408		 0.00001924
Si		1.48251346		2.77987417		8.38022194		-0.00032927		 0.00002408		 0.00001924
Si		16.86088500		5.69292874		3.58118535		 0.00032927		-0.00002408		-0.00001924
Si		16.86088500		6.55748063		8.98463876		 0.00027658		-0.00000538		 0.00011861
Si		1.48251346		1.91532228		2.97677037		-0.00027658		 0.00000538		-0.00011861
Si		12.17689820		5.82162236		6.23433965		-0.00011710		-0.00028134		-0.00007750
Si		6.16650026		2.65118055		5.72706948		 0.00011710		 0.00028134		 0.00007750
Si		15.33819949		1.58522182		0.25363417		 0.00011710		-0.00028134		-0.00007750
Si		3.00519897		5.14607902		0.82337279		-0.00011710		 0.00028134		 0.00007750
Si		6.20337049		1.90361186		0.30457746		-0.00015037		-0.00013084		 0.00001499
Si		12.14002797		4.82768898		0.77242950		 0.00015037		 0.00013084		-0.00001499
Si		2.96832874		6.14001239		6.28528110		 0.00015037		-0.00013084		 0.00001499
Si		15.37506972		2.33279052		5.67612619		-0.00015037		 0.00013084		-0.00001499
Mg		9.17169923		0.87075195		5.44220017		0.00000000		0.00000000		0.00000000
Mg		0.00000000		3.36565042		0.53850348		0.00000000		-0.00000000		0.00000000
Mg		9.17169923		0.00000000		0.00000000		0.00000000		-0.00000000		0.00000000
Mg		0.00000000		4.23640237		5.98070365		0.00000000		0.00000000		0.00000000
O		5.29573914		1.94240814		1.60468783		 0.00029883		-0.00048778		 0.00006985
O		13.04765933		6.53039660		10.35672129		-0.00029883		 0.00048778		-0.00006985
O		13.04765933		5.21381935		2.12811304		-0.00029141		-0.00045238		 0.00021138
O		5.29573914		3.25898539		9.83329425		 0.00029141		 0.00045238		-0.00021138
O		3.87596009		5.75388202		4.92959940		-0.00029141		 0.00045238		-0.00021138
O		14.46743837		2.71892089		7.03180973		 0.00029141		-0.00045238		 0.00021138
O		14.46743837		2.29399423		4.37601765		 0.00029883		 0.00048778		-0.00006985
O		3.87596009		6.17880868		7.58539148		-0.00029883		-0.00048778		 0.00006985
O		12.78168005		6.36639745		5.05199389		-0.00011886		-0.00066057		 0.00044779
O		5.56171841		2.10640546		6.90941340		 0.00011886		 0.00066057		-0.00044779
O		5.56171841		1.68948937		4.30368963		-0.00031303		 0.00000912		-0.00000880
O		12.78168005		6.78331354		7.65771950		 0.00031303		-0.00000912		 0.00000880
O		14.73341764		2.54691117		1.67701585		-0.00031303		-0.00000912		 0.00000880
O		3.60998082		5.92589174		10.28439327		 0.00031303		 0.00000912		-0.00000880
O		3.60998082		4.60130393		2.00571855		-0.00011886		 0.00066057		-0.00044779
O		14.73341764		3.87149898		9.95569058		 0.00011886		-0.00066057		 0.00044779
O		8.72595465		6.75520962		10.20814894		 0.00052730		 0.00009676		-0.00038832
O		9.61744381		1.71759329		1.75325836		-0.00052730		-0.00009676		 0.00038832
O		9.61744381		2.97356578		9.60308644		-0.00034906		-0.00075943		-0.00016680
O		8.72595465		5.49923713		2.35832086		 0.00034906		 0.00075943		 0.00016680
O		0.44574458		3.00434050		7.26201754		-0.00034906		 0.00075943		 0.00016680
O		17.89765388		5.46846424		4.69939158		 0.00034906		-0.00075943		-0.00016680
O		17.89765388		5.95399566		7.73396200		 0.00052730		-0.00009676		 0.00038832
O		0.44574458		2.51880908		4.22744529		-0.00052730		 0.00009676		-0.00038832
O		6.21712804		6.82219604		9.42980002		 0.00003006		-0.00030102		 0.00012083
O		12.12627042		1.65060686		2.53160911		-0.00003006		 0.00030102		-0.00012083
O		12.12627042		2.64744400		8.76183800		-0.00021427		 0.00002525		-0.00033423
O		6.21712804		5.82536074		3.19956929		 0.00021427		-0.00002525		 0.00033423
O		2.95457119		3.33046228		8.10326414		-0.00021427		-0.00002525		 0.00033423
O		15.38882727		5.14234247		3.85814315		 0.00021427		 0.00002525		-0.00033423
O		15.38882727		5.88700924		8.51231275		 0.00003006		 0.00030102		-0.00012083
O		2.95457119		2.58579551		3.44909454		-0.00003006		-0.00030102		 0.00012083
O		6.89711782		3.33805278		0.53408822		 0.00001219		-0.00013659		 0.00023884
O		11.44628064		3.39324806		0.54292057		-0.00001219		 0.00013659		-0.00023884
O		2.27458141		7.57445331		6.51479187		-0.00001219		-0.00013659		 0.00023884
O		16.06881705		0.89834960		5.44661542		 0.00001219		 0.00013659		-0.00023884
O		7.54830847		4.54728629		8.35416698		 0.00005968		 0.00000313		-0.00028001
O		10.79508999		3.92551662		3.60724031		-0.00005968		-0.00000313		 0.00028001
O		10.79508999		4.68864419		8.37678439		-0.00046531		-0.00015894		-0.00034549
O		7.54830847		3.78416056		3.58462290		 0.00046531		 0.00015894		 0.00034549
O		1.62339076		8.02056109		9.56532838		-0.00046531		 0.00015894		 0.00034549
O		16.72000770		0.45224181		2.39608074		 0.00046531		-0.00015894		-0.00034549
O		16.72000770		1.43061816		8.51093700		 0.00005968		-0.00000313		 0.00028001
O		1.62339076		7.04218475		3.45047029		-0.00005968		 0.00000313		-0.00028001
O		7.29700391		0.70342164		0.11254776		 0.00020502		 0.00027376		 0.00005040
O		11.04639455		6.02787920		0.96446104		-0.00020502		-0.00027376		-0.00005040
O		1.87469532		4.93982218		6.09325140		-0.00020502		 0.00027376		 0.00005040
O		16.46870314		3.53298073		5.86815772		 0.00020502		-0.00027376		-0.00005040
O		10.57313487		6.06596927		6.27343494		-0.00038540		 0.00023318		-0.00073216
O		7.77026359		2.40683548		5.68797236		 0.00038540		-0.00023318		 0.00073216
O		16.94196282		1.82956689		0.29273129		 0.00038540		 0.00023318		-0.00073216
O		1.40143564		4.90173211		0.78427750		-0.00038540		-0.00023318		 0.00073216
O		12.74132457		4.32121674		5.99427409		 0.00015806		-0.00007662		 0.00013411
O		5.60207389		4.15158800		5.96713320		-0.00015806		 0.00007662		-0.00013411
O		14.77377312		0.08481437		0.01357045		-0.00015806		-0.00007662		 0.00013411
O		3.56962534		6.64648463		1.06343835		 0.00015806		 0.00007662		-0.00013411
O		8.14997194		6.75747320		7.75858251		-0.00073515		-0.00048741		 0.00036304
O		10.19342652		1.71532971		4.20282661		 0.00073515		 0.00048741		-0.00036304
O		10.19342652		2.16672773		7.02406331		 0.00003097		-0.00053403		 0.00047534
O		8.14997194		6.30607518		4.93734582		-0.00003097		 0.00053403		-0.00047534
O		1.02172729		3.81117855		9.84104250		 0.00003097		 0.00053403		-0.00047534
O		17.32167117		4.66162436		2.12036662		-0.00003097		-0.00053403		 0.00047534
O		17.32167117		5.95173208		10.18353026		-0.00073515		 0.00048741		-0.00036304
O		1.02172729		2.52107266		1.77787703		 0.00073515		-0.00048741		 0.00036304
