# total energy = -41274.8803964 eV

CRYSTAL
PRIMVEC
		5.69780014		0.00000000		0.00000000
		0.00000000		11.17544868		0.00000000
		0.00000000		0.00000000		8.25709812
PRIMECORD
   56 1
Mg		0.00000000		0.00000000		0.00000000		0.00000000		0.00000000		0.00000000
Mg		0.00000000		5.58772491		0.00000000		0.00000000		0.00000000		0.00000000
Mg		2.84890007		5.58772491		4.12855020		0.00000000		0.00000000		0.00000000
Mg		2.84890007		0.00000000		4.12855020		0.00000000		0.00000000		0.00000000
Mg		0.00000000		2.79386217		8.00773618		0.00000000		-0.00004595		-0.00001277
Mg		0.00000000		8.38158708		0.24936422		0.00000000		 0.00004595		 0.00001277
Mg		2.84890007		8.38158708		3.87918598		0.00000000		 0.00004593		-0.00001280
Mg		2.84890007		2.79386217		4.37791499		0.00000000		-0.00004593		 0.00001280
Mg		1.42445004		1.41816479		2.06427482		-0.00000000		-0.00079941		-0.00000001
Mg		4.27335011		9.75728503		6.19282502		0.00000000		 0.00079941		 0.00000001
Mg		4.27335011		4.16956012		2.06427482		-0.00000000		 0.00071074		 0.00000001
Mg		1.42445004		7.00589027		6.19282502		0.00000000		-0.00071074		-0.00000001
Mg		4.27335011		7.00589027		6.19282502		-0.00000000		-0.00071074		-0.00000001
Mg		1.42445004		4.16956012		2.06427482		0.00000000		 0.00071074		 0.00000001
Mg		1.42445004		9.75728503		6.19282502		-0.00000000		 0.00079941		 0.00000001
Mg		4.27335011		1.41816479		2.06427482		0.00000000		-0.00079941		-0.00000001
Si		0.00000000		1.33993627		5.09050239		0.00000000		 0.00005150		 0.00034004
Si		0.00000000		9.83551411		3.16659801		0.00000000		-0.00005150		-0.00034004
Si		0.00000000		4.24778920		5.09050239		0.00000000		 0.00001808		 0.00034417
Si		0.00000000		6.92766118		3.16659801		0.00000000		-0.00001808		-0.00034417
Si		2.84890007		6.92766118		0.96195219		0.00000000		-0.00001816		 0.00034430
Si		2.84890007		4.24778920		7.29514821		0.00000000		 0.00001816		-0.00034430
Si		2.84890007		9.83551411		0.96195219		0.00000000		-0.00005148		 0.00033997
Si		2.84890007		1.33993627		7.29514821		0.00000000		 0.00005148		-0.00033997
O		0.00000000		2.79386217		1.80169910		0.00000000		-0.00006272		-0.00010340
O		0.00000000		8.38158708		6.45540130		0.00000000		 0.00006272		 0.00010340
O		2.84890007		8.38158708		5.93024930		0.00000000		 0.00006275		-0.00010335
O		2.84890007		2.79386217		2.32685110		0.00000000		-0.00006275		 0.00010335
O		0.00000000		2.79386217		5.90960617		0.00000000		 0.00002950		 0.00044006
O		0.00000000		8.38158708		2.34749423		0.00000000		-0.00002950		-0.00044006
O		2.84890007		8.38158708		1.78105597		0.00000000		-0.00002955		 0.00044006
O		2.84890007		2.79386217		6.47604443		0.00000000		 0.00002955		-0.00044006
O		0.00000000		11.06146020		2.11794581		0.00000000		-0.00046247		-0.00048116
O		0.00000000		0.11399019		6.13915402		0.00000000		 0.00046247		 0.00048116
O		0.00000000		5.70171510		2.11794581		0.00000000		 0.00038798		-0.00048430
O		0.00000000		5.47373529		6.13915402		0.00000000		-0.00038798		 0.00048430
O		2.84890007		5.47373529		6.24649601		0.00000000		-0.00038801		-0.00048421
O		2.84890007		5.70171510		2.01060382		0.00000000		 0.00038801		 0.00048421
O		2.84890007		0.11399019		6.24649601		0.00000000		 0.00046245		-0.00048117
O		2.84890007		11.06146020		2.01060382		0.00000000		-0.00046245		 0.00048117
O		1.48199782		1.37011012		8.20012639		-0.00066001		 0.00004399		-0.00067961
O		4.21580232		9.80534027		0.05697401		 0.00066001		-0.00004399		 0.00067961
O		4.21580232		4.21761536		8.20012639		 0.00065832		-0.00004593		-0.00067439
O		1.48199782		6.95783502		0.05697401		-0.00065832		 0.00004593		 0.00067439
O		4.21580232		6.95783502		0.05697401		 0.00065832		 0.00004593		 0.00067439
O		1.48199782		4.21761536		8.20012639		-0.00065832		-0.00004593		-0.00067439
O		1.48199782		9.80534027		0.05697401		-0.00066001		-0.00004399		 0.00067961
O		4.21580232		1.37011012		8.20012639		 0.00066001		 0.00004399		-0.00067961
O		4.33089789		6.95783502		4.07157619		-0.00065828		 0.00004597		-0.00067441
O		1.36690225		4.21761536		4.18552421		 0.00065828		-0.00004597		 0.00067441
O		1.36690225		9.80534027		4.07157619		 0.00065996		-0.00004398		-0.00067960
O		4.33089789		1.37011012		4.18552421		-0.00065996		 0.00004398		 0.00067960
O		1.36690225		1.37011012		4.18552421		 0.00065996		 0.00004398		 0.00067960
O		4.33089789		9.80534027		4.07157619		-0.00065996		-0.00004398		-0.00067960
O		4.33089789		4.21761536		4.18552421		-0.00065828		-0.00004597		 0.00067441
O		1.36690225		6.95783502		4.07157619		 0.00065828		 0.00004597		-0.00067441
