# total energy = -41267.3779575 eV

CRYSTAL
PRIMVEC
		5.69780014		0.00000000		0.00000000
		0.00000000		10.31579878		0.00000000
		0.00000000		0.00000000		8.25709812
PRIMECORD
   56 1
Mg		0.00000000		0.00000000		0.00000000		0.00000000		0.00000000		0.00000000
Mg		0.00000000		5.15789996		0.00000000		0.00000000		0.00000000		0.00000000
Mg		2.84890007		5.15789996		4.12855020		0.00000000		0.00000000		0.00000000
Mg		2.84890007		0.00000000		4.12855020		0.00000000		0.00000000		0.00000000
Mg		0.00000000		2.57895026		8.00773618		0.00000000		 0.00000232		-0.00037783
Mg		0.00000000		7.73685022		0.24936422		0.00000000		-0.00000232		 0.00037783
Mg		2.84890007		7.73685022		3.87918598		0.00000000		-0.00000230		-0.00037784
Mg		2.84890007		2.57895026		4.37791499		0.00000000		 0.00000230		 0.00037784
Mg		1.42445004		1.30907528		2.06427482		-0.00000002		-0.00035957		-0.00000007
Mg		4.27335011		9.00672521		6.19282502		 0.00000002		 0.00035957		 0.00000007
Mg		4.27335011		3.84882525		2.06427482		 0.00000003		 0.00042793		-0.00000008
Mg		1.42445004		6.46697524		6.19282502		-0.00000003		-0.00042793		 0.00000008
Mg		4.27335011		6.46697524		6.19282502		 0.00000003		-0.00042793		 0.00000008
Mg		1.42445004		3.84882525		2.06427482		-0.00000003		 0.00042793		-0.00000008
Mg		1.42445004		9.00672521		6.19282502		-0.00000002		 0.00035957		 0.00000007
Mg		4.27335011		1.30907528		2.06427482		 0.00000002		-0.00035957		-0.00000007
Si		0.00000000		1.23686421		5.09050239		0.00000000		-0.00019130		 0.00073070
Si		0.00000000		9.07893628		3.16659801		0.00000000		 0.00019130		-0.00073070
Si		0.00000000		3.92103632		5.09050239		0.00000000		 0.00012306		 0.00072287
Si		0.00000000		6.39476417		3.16659801		0.00000000		-0.00012306		-0.00072287
Si		2.84890007		6.39476417		0.96195219		0.00000000		-0.00012263		 0.00072179
Si		2.84890007		3.92103632		7.29514821		0.00000000		 0.00012263		-0.00072179
Si		2.84890007		9.07893628		0.96195219		0.00000000		 0.00019101		 0.00072997
Si		2.84890007		1.23686421		7.29514821		0.00000000		-0.00019101		-0.00072997
O		0.00000000		2.57895026		1.80169910		0.00000000		 0.00004080		 0.00046311
O		0.00000000		7.73685022		6.45540130		0.00000000		-0.00004080		-0.00046311
O		2.84890007		7.73685022		5.93024930		0.00000000		-0.00004082		 0.00046305
O		2.84890007		2.57895026		2.32685110		0.00000000		 0.00004082		-0.00046305
O		0.00000000		2.57895026		5.90960617		0.00000000		-0.00002829		 0.00012577
O		0.00000000		7.73685022		2.34749423		0.00000000		 0.00002829		-0.00012577
O		2.84890007		7.73685022		1.78105597		0.00000000		 0.00002831		 0.00012601
O		2.84890007		2.57895026		6.47604443		0.00000000		-0.00002831		-0.00012601
O		0.00000000		10.21057921		2.11794581		0.00000000		-0.00006260		 0.00032037
O		0.00000000		0.10522128		6.13915402		0.00000000		 0.00006260		-0.00032037
O		0.00000000		5.26312124		2.11794581		0.00000000		 0.00013941		 0.00030273
O		0.00000000		5.05267925		6.13915402		0.00000000		-0.00013941		-0.00030273
O		2.84890007		5.05267925		6.24649601		0.00000000		-0.00013890		 0.00030216
O		2.84890007		5.26312124		2.01060382		0.00000000		 0.00013890		-0.00030216
O		2.84890007		0.10522128		6.24649601		0.00000000		 0.00006231		 0.00032002
O		2.84890007		10.21057921		2.01060382		0.00000000		-0.00006231		-0.00032002
O		1.48199782		1.26471677		8.20012639		 0.00013321		-0.00004686		-0.00033913
O		4.21580232		9.05108315		0.05697401		-0.00013321		 0.00004686		 0.00033913
O		4.21580232		3.89318319		8.20012639		-0.00013704		 0.00004370		-0.00033427
O		1.48199782		6.42261730		0.05697401		 0.00013704		-0.00004370		 0.00033427
O		4.21580232		6.42261730		0.05697401		-0.00013704		-0.00004370		 0.00033427
O		1.48199782		3.89318319		8.20012639		 0.00013704		 0.00004370		-0.00033427
O		1.48199782		9.05108315		0.05697401		 0.00013321		 0.00004686		 0.00033913
O		4.21580232		1.26471677		8.20012639		-0.00013321		-0.00004686		-0.00033913
O		4.33089789		6.42261730		4.07157619		 0.00013672		-0.00004369		-0.00033405
O		1.36690225		3.89318319		4.18552421		-0.00013672		 0.00004369		 0.00033405
O		1.36690225		9.05108315		4.07157619		-0.00013303		 0.00004687		-0.00033896
O		4.33089789		1.26471677		4.18552421		 0.00013303		-0.00004687		 0.00033896
O		1.36690225		1.26471677		4.18552421		-0.00013303		-0.00004687		 0.00033896
O		4.33089789		9.05108315		4.07157619		 0.00013303		 0.00004687		-0.00033896
O		4.33089789		3.89318319		4.18552421		 0.00013672		 0.00004369		 0.00033405
O		1.36690225		6.42261730		4.07157619		-0.00013672		-0.00004369		-0.00033405
