# total energy = -41274.5257058 eV

CRYSTAL
PRIMVEC
		5.69780014		0.00000000		0.00000000
		0.00000000		12.03509858		0.00000000
		0.00000000		0.00000000		8.25709812
PRIMECORD
   56 1
Mg		0.00000000		0.00000000		0.00000000		0.00000000		0.00000000		0.00000000
Mg		0.00000000		6.01755043		0.00000000		0.00000000		0.00000000		0.00000000
Mg		2.84890007		6.01755043		4.12855020		0.00000000		0.00000000		0.00000000
Mg		2.84890007		0.00000000		4.12855020		0.00000000		0.00000000		0.00000000
Mg		0.00000000		3.00877521		8.00773618		0.00000000		-0.00000002		-0.00024921
Mg		0.00000000		9.02632507		0.24936422		0.00000000		 0.00000002		 0.00024921
Mg		2.84890007		9.02632507		3.87918598		0.00000000		 0.00000001		-0.00024918
Mg		2.84890007		3.00877521		4.37791499		0.00000000		-0.00000001		 0.00024918
Mg		1.42445004		1.52725430		2.06427482		 0.00000002		-0.00064750		-0.00000000
Mg		4.27335011		10.50784598		6.19282502		-0.00000002		 0.00064750		0.00000000
Mg		4.27335011		4.49029612		2.06427482		-0.00000001		 0.00064746		-0.00000001
Mg		1.42445004		7.54480416		6.19282502		 0.00000001		-0.00064746		 0.00000001
Mg		4.27335011		7.54480416		6.19282502		-0.00000001		-0.00064746		 0.00000001
Mg		1.42445004		4.49029612		2.06427482		 0.00000001		 0.00064746		-0.00000001
Mg		1.42445004		10.50784598		6.19282502		 0.00000002		 0.00064750		0.00000000
Mg		4.27335011		1.52725430		2.06427482		-0.00000002		-0.00064750		-0.00000000
Si		0.00000000		1.44300891		5.09050239		0.00000000		 0.00019357		 0.00018454
Si		0.00000000		10.59209252		3.16659801		0.00000000		-0.00019357		-0.00018454
Si		0.00000000		4.57454209		5.09050239		0.00000000		-0.00019361		 0.00018457
Si		0.00000000		7.46055820		3.16659801		0.00000000		 0.00019361		-0.00018457
Si		2.84890007		7.46055820		0.96195219		0.00000000		 0.00019358		 0.00018456
Si		2.84890007		4.57454209		7.29514821		0.00000000		-0.00019358		-0.00018456
Si		2.84890007		10.59209252		0.96195219		0.00000000		-0.00019359		 0.00018459
Si		2.84890007		1.44300891		7.29514821		0.00000000		 0.00019359		-0.00018459
O		0.00000000		3.00877521		1.80169910		0.00000000		 0.00000001		 0.00006531
O		0.00000000		9.02632507		6.45540130		0.00000000		-0.00000001		-0.00006531
O		2.84890007		9.02632507		5.93024930		0.00000000		-0.00000006		 0.00006525
O		2.84890007		3.00877521		2.32685110		0.00000000		 0.00000006		-0.00006525
O		0.00000000		3.00877521		5.90960617		0.00000000		-0.00000002		-0.00030790
O		0.00000000		9.02632507		2.34749423		0.00000000		 0.00000002		 0.00030790
O		2.84890007		9.02632507		1.78105597		0.00000000		 0.00000005		-0.00030787
O		2.84890007		3.00877521		6.47604443		0.00000000		-0.00000005		 0.00030787
O		0.00000000		11.91234232		2.11794581		0.00000000		-0.00040485		 0.00083183
O		0.00000000		0.12275796		6.13915402		0.00000000		 0.00040485		-0.00083183
O		0.00000000		6.14030839		2.11794581		0.00000000		 0.00040490		 0.00083183
O		0.00000000		5.89479189		6.13915402		0.00000000		-0.00040490		-0.00083183
O		2.84890007		5.89479189		6.24649601		0.00000000		-0.00040485		 0.00083185
O		2.84890007		6.14030839		2.01060382		0.00000000		 0.00040485		-0.00083185
O		2.84890007		0.12275796		6.24649601		0.00000000		 0.00040486		 0.00083187
O		2.84890007		11.91234232		2.01060382		0.00000000		-0.00040486		-0.00083187
O		1.48199782		1.47550289		8.20012639		 0.00034721		-0.00025941		 0.00073190
O		4.21580232		10.55959625		0.05697401		-0.00034721		 0.00025941		-0.00073190
O		4.21580232		4.54204696		8.20012639		-0.00034726		 0.00025942		 0.00073192
O		1.48199782		7.49305332		0.05697401		 0.00034726		-0.00025942		-0.00073192
O		4.21580232		7.49305332		0.05697401		-0.00034726		-0.00025942		-0.00073192
O		1.48199782		4.54204696		8.20012639		 0.00034726		 0.00025942		 0.00073192
O		1.48199782		10.55959625		0.05697401		 0.00034721		 0.00025941		-0.00073190
O		4.21580232		1.47550289		8.20012639		-0.00034721		-0.00025941		 0.00073190
O		4.33089789		7.49305332		4.07157619		 0.00034721		-0.00025940		 0.00073194
O		1.36690225		4.54204696		4.18552421		-0.00034721		 0.00025940		-0.00073194
O		1.36690225		10.55959625		4.07157619		-0.00034725		 0.00025941		 0.00073192
O		4.33089789		1.47550289		4.18552421		 0.00034725		-0.00025941		-0.00073192
O		1.36690225		1.47550289		4.18552421		-0.00034725		-0.00025941		-0.00073192
O		4.33089789		10.55959625		4.07157619		 0.00034725		 0.00025941		 0.00073192
O		4.33089789		4.54204696		4.18552421		 0.00034721		 0.00025940		-0.00073194
O		1.36690225		7.49305332		4.07157619		-0.00034721		-0.00025940		 0.00073194
