# total energy = -41275.3243056 eV

CRYSTAL
PRIMVEC
		5.69780014		0.00000000		0.00000000
		0.00000000		11.74855051		0.00000000
		0.00000000		0.00000000		8.25709812
PRIMECORD
   56 1
Mg		0.00000000		0.00000000		0.00000000		0.00000000		0.00000000		0.00000000
Mg		0.00000000		5.87427526		0.00000000		0.00000000		0.00000000		0.00000000
Mg		2.84890007		5.87427526		4.12855020		0.00000000		0.00000000		0.00000000
Mg		2.84890007		0.00000000		4.12855020		0.00000000		0.00000000		0.00000000
Mg		0.00000000		2.93713734		8.00773618		0.00000000		-0.00000001		-0.00057176
Mg		0.00000000		8.81141203		0.24936422		0.00000000		 0.00000001		 0.00057176
Mg		2.84890007		8.81141203		3.87918598		0.00000000		 0.00000001		-0.00057175
Mg		2.84890007		2.93713734		4.37791499		0.00000000		-0.00000001		 0.00057175
Mg		1.42445004		1.49089094		2.06427482		-0.00000002		-0.00033349		-0.00000002
Mg		4.27335011		10.25765900		6.19282502		 0.00000002		 0.00033349		 0.00000002
Mg		4.27335011		4.38338431		2.06427482		 0.00000001		 0.00033348		-0.00000001
Mg		1.42445004		7.36516620		6.19282502		-0.00000001		-0.00033348		 0.00000001
Mg		4.27335011		7.36516620		6.19282502		 0.00000001		-0.00033348		 0.00000001
Mg		1.42445004		4.38338431		2.06427482		-0.00000001		 0.00033348		-0.00000001
Mg		1.42445004		10.25765900		6.19282502		-0.00000002		 0.00033349		 0.00000002
Mg		4.27335011		1.49089094		2.06427482		 0.00000002		-0.00033349		-0.00000002
Si		0.00000000		1.40865117		5.09050239		0.00000000		 0.00016361		 0.00030664
Si		0.00000000		10.33989934		3.16659801		0.00000000		-0.00016361		-0.00030664
Si		0.00000000		4.46562408		5.09050239		0.00000000		-0.00016361		 0.00030664
Si		0.00000000		7.28292643		3.16659801		0.00000000		 0.00016361		-0.00030664
Si		2.84890007		7.28292643		0.96195219		0.00000000		 0.00016371		 0.00030666
Si		2.84890007		4.46562408		7.29514821		0.00000000		-0.00016371		-0.00030666
Si		2.84890007		10.33989934		0.96195219		0.00000000		-0.00016373		 0.00030662
Si		2.84890007		1.40865117		7.29514821		0.00000000		 0.00016373		-0.00030662
O		0.00000000		2.93713734		1.80169910		0.00000000		-0.00000001		 0.00085071
O		0.00000000		8.81141203		6.45540130		0.00000000		 0.00000001		-0.00085071
O		2.84890007		8.81141203		5.93024930		0.00000000		-0.00000002		 0.00085078
O		2.84890007		2.93713734		2.32685110		0.00000000		 0.00000002		-0.00085078
O		0.00000000		2.93713734		5.90960617		0.00000000		-0.00000003		 0.00047978
O		0.00000000		8.81141203		2.34749423		0.00000000		 0.00000003		-0.00047978
O		2.84890007		8.81141203		1.78105597		0.00000000		 0.00000002		 0.00047986
O		2.84890007		2.93713734		6.47604443		0.00000000		-0.00000002		-0.00047986
O		0.00000000		11.62871438		2.11794581		0.00000000		 0.00017981		 0.00012798
O		0.00000000		0.11983499		6.13915402		-0.00000000		-0.00017981		-0.00012798
O		0.00000000		5.99411025		2.11794581		0.00000000		-0.00017979		 0.00012800
O		0.00000000		5.75443912		6.13915402		0.00000000		 0.00017979		-0.00012800
O		2.84890007		5.75443912		6.24649601		0.00000000		 0.00017973		 0.00012800
O		2.84890007		5.99411025		2.01060382		0.00000000		-0.00017973		-0.00012800
O		2.84890007		0.11983499		6.24649601		-0.00000000		-0.00017978		 0.00012801
O		2.84890007		11.62871438		2.01060382		0.00000000		 0.00017978		-0.00012801
O		1.48199782		1.44037197		8.20012639		 0.00019021		 0.00069244		 0.00041989
O		4.21580232		10.30817740		0.05697401		-0.00019021		-0.00069244		-0.00041989
O		4.21580232		4.43390329		8.20012639		-0.00019020		-0.00069247		 0.00041988
O		1.48199782		7.31464722		0.05697401		 0.00019020		 0.00069247		-0.00041988
O		4.21580232		7.31464722		0.05697401		-0.00019020		 0.00069247		-0.00041988
O		1.48199782		4.43390329		8.20012639		 0.00019020		-0.00069247		 0.00041988
O		1.48199782		10.30817740		0.05697401		 0.00019021		-0.00069244		-0.00041989
O		4.21580232		1.44037197		8.20012639		-0.00019021		 0.00069244		 0.00041989
O		4.33089789		7.31464722		4.07157619		 0.00019018		 0.00069242		 0.00041991
O		1.36690225		4.43390329		4.18552421		-0.00019018		-0.00069242		-0.00041991
O		1.36690225		10.30817740		4.07157619		-0.00019017		-0.00069240		 0.00041992
O		4.33089789		1.44037197		4.18552421		 0.00019017		 0.00069240		-0.00041992
O		1.36690225		1.44037197		4.18552421		-0.00019017		 0.00069240		-0.00041992
O		4.33089789		10.30817740		4.07157619		 0.00019017		-0.00069240		 0.00041992
O		4.33089789		4.43390329		4.18552421		 0.00019018		-0.00069242		-0.00041991
O		1.36690225		7.31464722		4.07157619		-0.00019018		 0.00069242		 0.00041991
