# total energy = -41271.4403894 eV

CRYSTAL
PRIMVEC
		5.69780014		0.00000000		0.00000000
		0.00000000		12.60820041		0.00000000
		0.00000000		0.00000000		8.25709812
PRIMECORD
   56 1
Mg		0.00000000		0.00000000		0.00000000		0.00000000		0.00000000		0.00000000
Mg		0.00000000		6.30410020		0.00000000		0.00000000		0.00000000		0.00000000
Mg		2.84890007		6.30410020		4.12855020		0.00000000		0.00000000		0.00000000
Mg		2.84890007		0.00000000		4.12855020		0.00000000		0.00000000		0.00000000
Mg		0.00000000		3.15204982		8.00773618		0.00000000		0.00000000		 0.00045945
Mg		0.00000000		9.45615002		0.24936422		0.00000000		-0.00000000		-0.00045945
Mg		2.84890007		9.45615002		3.87918598		0.00000000		 0.00000001		 0.00045949
Mg		2.84890007		3.15204982		4.37791499		0.00000000		-0.00000001		-0.00045949
Mg		1.42445004		1.59998102		2.06427482		-0.00000000		-0.00009153		-0.00000000
Mg		4.27335011		11.00821938		6.19282502		0.00000000		 0.00009153		0.00000000
Mg		4.27335011		4.70411918		2.06427482		-0.00000000		 0.00009153		-0.00000000
Mg		1.42445004		7.90408123		6.19282502		0.00000000		-0.00009153		0.00000000
Mg		4.27335011		7.90408123		6.19282502		-0.00000000		-0.00009153		0.00000000
Mg		1.42445004		4.70411918		2.06427482		0.00000000		 0.00009153		-0.00000000
Mg		1.42445004		11.00821938		6.19282502		-0.00000000		 0.00009153		0.00000000
Mg		4.27335011		1.59998102		2.06427482		0.00000000		-0.00009153		-0.00000000
Si		0.00000000		1.51172324		5.09050239		0.00000000		-0.00036647		-0.00020151
Si		0.00000000		11.09647717		3.16659801		0.00000000		 0.00036647		 0.00020151
Si		0.00000000		4.79237696		5.09050239		0.00000000		 0.00036646		-0.00020151
Si		0.00000000		7.81582344		3.16659801		0.00000000		-0.00036646		 0.00020151
Si		2.84890007		7.81582344		0.96195219		0.00000000		-0.00036646		-0.00020149
Si		2.84890007		4.79237696		7.29514821		0.00000000		 0.00036646		 0.00020149
Si		2.84890007		11.09647717		0.96195219		0.00000000		 0.00036647		-0.00020148
Si		2.84890007		1.51172324		7.29514821		0.00000000		-0.00036647		 0.00020148
O		0.00000000		3.15204982		1.80169910		0.00000000		 0.00000001		 0.00034794
O		0.00000000		9.45615002		6.45540130		0.00000000		-0.00000001		-0.00034794
O		2.84890007		9.45615002		5.93024930		0.00000000		0.00000000		 0.00034796
O		2.84890007		3.15204982		2.32685110		0.00000000		-0.00000000		-0.00034796
O		0.00000000		3.15204982		5.90960617		0.00000000		-0.00000005		-0.00062450
O		0.00000000		9.45615002		2.34749423		0.00000000		 0.00000005		 0.00062450
O		2.84890007		9.45615002		1.78105597		0.00000000		 0.00000002		-0.00062456
O		2.84890007		3.15204982		6.47604443		0.00000000		-0.00000002		 0.00062456
O		0.00000000		12.47959650		2.11794581		0.00000000		-0.00012632		-0.00071355
O		0.00000000		0.12860391		6.13915402		0.00000000		 0.00012632		 0.00071355
O		0.00000000		6.43270411		2.11794581		0.00000000		 0.00012627		-0.00071356
O		0.00000000		6.17549630		6.13915402		0.00000000		-0.00012627		 0.00071356
O		2.84890007		6.17549630		6.24649601		0.00000000		-0.00012621		-0.00071358
O		2.84890007		6.43270411		2.01060382		0.00000000		 0.00012621		 0.00071358
O		2.84890007		0.12860391		6.24649601		0.00000000		 0.00012623		-0.00071357
O		2.84890007		12.47959650		2.01060382		0.00000000		-0.00012623		 0.00071357
O		1.48199782		1.54576532		8.20012639		-0.00047092		-0.00002849		-0.00004555
O		4.21580232		11.06243452		0.05697401		 0.00047092		 0.00002849		 0.00004555
O		4.21580232		4.75833489		8.20012639		 0.00047093		 0.00002850		-0.00004553
O		1.48199782		7.84986495		0.05697401		-0.00047093		-0.00002850		 0.00004553
O		4.21580232		7.84986495		0.05697401		 0.00047093		-0.00002850		 0.00004553
O		1.48199782		4.75833489		8.20012639		-0.00047093		 0.00002850		-0.00004553
O		1.48199782		11.06243452		0.05697401		-0.00047092		 0.00002849		 0.00004555
O		4.21580232		1.54576532		8.20012639		 0.00047092		-0.00002849		-0.00004555
O		4.33089789		7.84986495		4.07157619		-0.00047096		-0.00002848		-0.00004555
O		1.36690225		4.75833489		4.18552421		 0.00047096		 0.00002848		 0.00004555
O		1.36690225		11.06243452		4.07157619		 0.00047097		 0.00002848		-0.00004557
O		4.33089789		1.54576532		4.18552421		-0.00047097		-0.00002848		 0.00004557
O		1.36690225		1.54576532		4.18552421		 0.00047097		-0.00002848		 0.00004557
O		4.33089789		11.06243452		4.07157619		-0.00047097		 0.00002848		-0.00004557
O		4.33089789		4.75833489		4.18552421		-0.00047096		 0.00002848		 0.00004555
O		1.36690225		7.84986495		4.07157619		 0.00047096		-0.00002848		-0.00004555
