# total energy = -8761.44659249 eV

CRYSTAL
PRIMVEC
		3.04799884		-0.24383930		0.00000000
		-1.73517138		2.76156526		0.00000000
		0.00000000		0.00000000		12.36199947
PRIMECORD
   11 1
H		-0.14078100		1.75976384		5.80643145		-0.00028076		-0.00015069		-0.00032604
H		1.45360877		0.75796181		6.55556832		 0.00028076		 0.00015069		 0.00032604
Mg		0.00000000		0.00000000		8.63732907		 0.00013098		-0.00004753		 0.00011737
Mg		0.00000000		0.00000000		3.72467070		-0.00013098		 0.00004753		-0.00011737
Mg		1.45360999		0.75796181		11.12703576		 0.00061499		 0.00020971		 0.00001412
Mg		-0.14078100		1.75976384		1.23496401		-0.00061499		-0.00020971		-0.00001412
O		1.45360999		0.75796181		2.46992771		 0.00042939		 0.00043279		 0.00009833
O		-0.14078100		1.75976384		9.89207206		-0.00042939		-0.00043279		-0.00009833
O		-0.14078100		1.75976384		4.81623445		 0.00001838		-0.00061410		 0.00015497
O		1.45360877		0.75796181		7.54576410		-0.00001838		 0.00061410		-0.00015497
O		0.00000000		0.00000000		0.00000000		0.00000000		0.00000000		0.00000000
