# total energy = -8761.94888936 eV

CRYSTAL
PRIMVEC
		3.04799991		0.12191987		0.00000000
		-1.41841365		2.57868709		0.00000000
		0.00000000		0.00000000		12.36200050
PRIMECORD
   11 1
H		0.07039097		1.75976397		5.80643157		-0.00019205		-0.00008644		 0.00032685
H		1.55919498		0.94084208		6.55556862		 0.00019205		 0.00008644		-0.00032685
Mg		0.00000000		0.00000000		8.63732942		 0.00008883		-0.00033199		-0.00074540
Mg		0.00000000		0.00000000		3.72467077		-0.00008883		 0.00033199		 0.00074540
Mg		1.55919498		0.94084208		11.12703618		 0.00056132		-0.00061539		 0.00052935
Mg		0.07039097		1.75976397		1.23496401		-0.00056132		 0.00061539		-0.00052935
O		1.55919498		0.94084208		2.46992772		-0.00042180		-0.00014832		 0.00003843
O		0.07039097		1.75976397		9.89207217		 0.00042180		 0.00014832		-0.00003843
O		0.07039097		1.75976397		4.81623464		 0.00011041		-0.00060863		 0.00016832
O		1.55919498		0.94084208		7.54576433		-0.00011041		 0.00060863		-0.00016832
O		0.00000000		0.00000000		0.00000000		0.00000000		0.00000000		0.00000000
