# total energy = -8760.62495096 eV

CRYSTAL
PRIMVEC
		3.04800034		-0.36575930		0.00000000
		-1.84075672		2.82252475		0.00000000
		0.00000000		0.00000000		12.36199833
PRIMECORD
   11 1
H		-0.21117185		1.75976381		5.80643180		-0.00051626		-0.00019152		 0.00093759
H		1.41841394		0.69700195		6.55556868		 0.00051626		 0.00019152		-0.00093759
Mg		0.00000000		0.00000000		8.63732961		-0.00029335		-0.00006289		 0.00000116
Mg		0.00000000		0.00000000		3.72467087		 0.00029335		 0.00006289		-0.00000116
Mg		1.41841394		0.69700195		11.12703657		 0.00045068		-0.00012677		-0.00043064
Mg		-0.21117185		1.75976381		1.23496390		-0.00045068		 0.00012677		 0.00043064
O		1.41841394		0.69700195		2.46992781		-0.00058905		-0.00041542		 0.00016806
O		-0.21117185		1.75976381		9.89207236		 0.00058905		 0.00041542		-0.00016806
O		-0.21117185		1.75976381		4.81623484		 0.00000789		-0.00045762		-0.00078319
O		1.41841394		0.69700195		7.54576472		-0.00000789		 0.00045762		 0.00078319
O		0.00000000		0.00000000		0.00000000		0.00000000		0.00000000		0.00000000
