# total energy = -8759.51913798 eV

CRYSTAL
PRIMVEC
		3.04800115		-0.48768154		0.00000000
		-1.94634296		2.88348568		0.00000000
		0.00000000		0.00000000		12.36199908
PRIMECORD
   11 1
H		-0.28156200		1.75976389		5.80643199		-0.00082674		 0.00053168		-0.00065162
H		1.38321896		0.63604210		6.55556894		 0.00082674		-0.00053168		 0.00065162
Mg		0.00000000		0.00000000		8.63732995		 0.00009954		-0.00065359		-0.00048003
Mg		0.00000000		0.00000000		3.72467098		-0.00009954		 0.00065359		 0.00048003
Mg		1.38321896		0.63604210		11.12703697		 0.00073978		 0.00090697		-0.00005739
Mg		-0.28156200		1.75976389		1.23496397		-0.00073978		-0.00090697		 0.00005739
O		1.38321896		0.63604210		2.46992793		 0.00045008		-0.00035974		 0.00085151
O		-0.28156200		1.75976389		9.89207300		-0.00045008		 0.00035974		-0.00085151
O		-0.28156200		1.75976389		4.81623513		 0.00029180		-0.00060726		 0.00000705
O		1.38321896		0.63604210		7.54576518		-0.00029180		 0.00060726		-0.00000705
O		0.00000000		0.00000000		0.00000000		0.00000000		0.00000000		0.00000000
