# total energy = -14249.8543522 eV

CRYSTAL
PRIMVEC
		7.72999987		0.00000000		0.00000000
		0.00000000		7.72999987		0.00000000
		0.00000000		0.00000000		5.38575373
PRIMECORD
   24 1
Ca		2.55089996		1.31409998		2.74673332		-0.00084465		 0.00084465		 0.00033024
Ca		5.17909991		6.41589989		2.74673332		 0.00084465		-0.00084465		 0.00033024
Ca		1.31409998		5.17909991		2.63901809		 0.00084465		 0.00084465		-0.00033024
Ca		6.41589989		2.55089996		2.63901809		-0.00084465		-0.00084465		-0.00033024
Si		1.08219998		2.78279995		5.11646295		-0.00025142		 0.00025142		 0.00053324
Si		6.64779989		4.94719992		5.11646295		 0.00025142		-0.00025142		 0.00053324
Si		2.78279995		6.64779989		0.26928769		 0.00025142		 0.00025142		-0.00053324
Si		4.94719992		1.08219998		0.26928769		-0.00025142		-0.00025142		-0.00053324
Mg		0.00000000		0.00000000		0.00000000		0.00000000		0.00000000		0.00000000
Mg		3.86499994		3.86499994		0.00000000		0.00000000		0.00000000		0.00000000
O		3.86499994		0.00000000		1.02329274		0.00000000		0.00000000		 0.00035838
O		0.00000000		3.86499994		4.36245789		0.00000000		0.00000000		-0.00035838
O		1.08219998		2.78279995		1.40029489		 0.00041685		-0.00041685		 0.00082428
O		6.64779989		4.94719992		1.40029489		-0.00041685		 0.00041685		 0.00082428
O		2.78279995		6.64779989		3.98545498		-0.00041685		-0.00041685		-0.00082428
O		4.94719992		1.08219998		3.98545498		 0.00041685		 0.00041685		-0.00082428
O		0.61839999		1.39139998		4.36245789		 0.00052872		 0.00052327		-0.00049825
O		7.11159988		6.33859989		4.36245789		-0.00052872		-0.00052327		-0.00049825
O		1.39139998		7.11159988		1.02329274		 0.00052327		-0.00052872		 0.00049825
O		6.33859989		0.61839999		1.02329274		-0.00052327		 0.00052872		 0.00049825
O		3.24659995		5.25639991		1.02329274		-0.00052872		 0.00052327		 0.00049825
O		4.48339993		2.47359996		1.02329274		 0.00052872		-0.00052327		 0.00049825
O		2.47359996		3.24659995		4.36245789		-0.00052327		-0.00052872		-0.00049825
O		5.25639991		4.48339993		4.36245789		 0.00052327		 0.00052872		-0.00049825
