# total energy = -14247.1776054 eV

CRYSTAL
PRIMVEC
		7.86000087		0.94319820		0.00000000
		0.94319820		7.86000087		0.00000000
		0.00000000		0.00000000		5.02400190
PRIMECORD
   24 1
O		1.44403253		2.95756700		1.27780419		 0.00001450		-0.00001450		-0.00018665
O		7.35916654		5.84563286		1.27780419		-0.00001450		 0.00001450		-0.00018665
O		3.63555746		7.09395800		3.74619612		-0.00030379		-0.00030379		-0.00042645
O		5.16764161		1.70924187		3.74619612		 0.00030379		 0.00030379		-0.00042645
O		0.82662700		1.54196223		3.96061945		 0.00038698		 0.00017709		-0.00024466
O		7.97657287		7.26123764		3.96061945		-0.00038698		-0.00017709		-0.00024466
O		2.32893049		7.38469690		1.06338008		 0.00011508		-0.00005716		 0.00035601
O		6.47426859		1.41850376		1.06338008		-0.00011508		 0.00005716		 0.00035601
O		3.92629556		5.78733103		1.06338008		-0.00005716		 0.00011508		 0.00035601
O		4.87690351		3.01586884		1.06338008		 0.00005716		-0.00011508		 0.00035601
O		2.85963810		3.57497254		3.96061945		-0.00017709		-0.00038698		-0.00024466
O		5.94356176		5.22822653		3.96061945		 0.00017709		 0.00038698		-0.00024466
O		0.47159989		3.92999964		4.11616304		0.00000000		0.00000000		-0.00014876
O		3.92999964		0.47159989		0.90783728		0.00000000		0.00000000		 0.00013122
Ca		2.76563969		1.63595985		2.54686710		-0.00052975		 0.00052975		 0.00029874
Ca		6.03755939		7.16724002		2.54686710		 0.00052975		-0.00052975		 0.00029874
Ca		1.95351314		5.41191289		2.47713321		-0.00000566		-0.00000566		 0.00077367
Ca		6.84968672		3.39128698		2.47713321		 0.00000566		 0.00000566		 0.00077367
Si		1.43932861		2.96227013		4.69934840		-0.00007964		 0.00007964		-0.00012403
Si		7.36387046		5.84092894		4.69934840		 0.00007964		-0.00007964		-0.00012403
Si		3.64154383		7.09994437		0.32465113		-0.00001792		-0.00001792		-0.00018547
Si		5.16165603		1.70325628		0.32465113		 0.00001792		 0.00001792		-0.00018547
Mg		0.00000000		0.00000000		0.00000000		0.00000000		0.00000000		-0.00036373
Mg		4.40159954		4.40159954		0.00000000		0.00000000		0.00000000		-0.00036373
