# total energy = -14249.0020732 eV

CRYSTAL
PRIMVEC
		7.85999768		0.62879824		0.00000000
		0.62879824		7.85999768		0.00000000
		0.00000000		0.00000000		5.02399896
PRIMECORD
   24 1
O		1.33103367		2.91336586		1.27780365		-0.00002992		 0.00002992		-0.00009396
O		7.15776619		5.57543479		1.27780365		 0.00002992		-0.00002992		-0.00009396
O		3.36536018		6.98095990		3.74619610		-0.00021374		-0.00021374		-0.00049166
O		5.12344126		1.50783996		3.74619610		 0.00021374		 0.00021374		-0.00049166
O		0.76807297		1.51592378		3.96061988		 0.00033872		 0.00016259		-0.00018670
O		7.72072689		6.97287609		3.96061988		-0.00033872		-0.00016259		-0.00018670
O		2.04056915		7.32614250		1.06337986		 0.00022070		 0.00008728		 0.00025145
O		6.44823071		1.16265736		1.06337986		-0.00022070		-0.00008728		 0.00025145
O		3.71054278		5.65616887		1.06337986		 0.00008728		 0.00022070		 0.00025145
O		4.77825787		2.83263099		1.06337986		-0.00008728		-0.00022070		 0.00025145
O		2.72847576		3.47632657		3.96061988		-0.00016259		-0.00033872		-0.00018670
O		5.76032410		5.01247329		3.96061988		 0.00016259		 0.00033872		-0.00018670
O		0.31439991		3.92999963		4.11616318		0.00000000		0.00000000		 0.00008533
O		3.92999963		0.31439991		0.90783736		0.00000000		0.00000000		 0.00002241
Ca		2.71271421		1.53168611		2.54686666		-0.00048945		 0.00048945		 0.00019416
Ca		5.77608565		6.95711375		2.54686666		 0.00048945		-0.00048945		 0.00019416
Ca		1.74338796		5.35898768		2.47713309		 0.00015925		 0.00015925		 0.00076890
Ca		6.74541190		3.12981218		2.47713309		-0.00015925		-0.00015925		 0.00076890
Si		1.32611731		2.91828302		4.69934920		-0.00005568		 0.00005568		 0.00002760
Si		7.16268255		5.57051684		4.69934920		 0.00005568		-0.00005568		 0.00002760
Si		3.37113208		6.98673180		0.32465134		 0.00008650		 0.00008650		-0.00036720
Si		5.11766778		1.50206806		0.32465134		-0.00008650		-0.00008650		-0.00036720
Mg		0.00000000		0.00000000		0.00000000		0.00000000		0.00000000		-0.00022119
Mg		4.24440032		4.24440032		0.00000000		0.00000000		0.00000000		-0.00022119
