# total energy = -14250.0995644 eV

CRYSTAL
PRIMVEC
		7.86000006		0.31439969		0.00000000
		0.31439969		7.86000006		0.00000000
		0.00000000		0.00000000		5.02399972
PRIMECORD
   24 1
O		1.21803606		2.86916382		1.27780409		-0.00040509		 0.00040509		 0.00005045
O		6.95636369		5.30523593		1.27780409		 0.00040509		-0.00040509		 0.00005045
O		3.09516062		6.86796081		3.74619562		-0.00013552		-0.00013552		 0.00025732
O		5.07923913		1.30643894		3.74619562		 0.00013552		 0.00013552		 0.00025732
O		0.70951926		1.48988465		3.96061955		-0.00040907		-0.00017149		 0.00014250
O		7.46488049		6.68451510		3.96061955		 0.00040907		 0.00017149		 0.00014250
O		1.75220795		7.26758855		1.06338017		-0.00013401		 0.00030989		-0.00033931
O		6.42219180		0.90681120		1.06338017		 0.00013401		-0.00030989		-0.00033931
O		3.49478915		5.52500814		1.06338017		 0.00030989		-0.00013401		-0.00033931
O		4.67961060		2.64939161		1.06338017		-0.00030989		 0.00013401		-0.00033931
O		2.59731523		3.37768061		3.96061955		 0.00017149		 0.00040907		 0.00014250
O		5.57708452		4.79671914		3.96061955		-0.00017149		-0.00040907		 0.00014250
O		0.15719984		3.93000003		4.11616275		0.00000000		0.00000000		 0.00002238
O		3.93000003		0.15719984		0.90783697		0.00000000		0.00000000		-0.00031180
Ca		2.65978927		1.42741061		2.54686717		 0.00021968		-0.00021968		-0.00074910
Ca		5.51461049		6.74698914		2.54686717		-0.00021968		 0.00021968		-0.00074910
Ca		1.53326170		5.30606189		2.47713255		 0.00055122		 0.00055122		 0.00064819
Ca		6.64113805		2.86833786		2.47713255		-0.00055122		-0.00055122		 0.00064819
Si		1.21290488		2.87429500		4.69934869		 0.00000462		-0.00000462		 0.00037120
Si		6.96149487		5.30010475		4.69934869		-0.00000462		 0.00000462		 0.00037120
Si		3.10071972		6.87351991		0.32465103		-0.00010295		-0.00010295		 0.00010272
Si		5.07368003		1.30087984		0.32465103		 0.00010295		 0.00010295		 0.00010272
Mg		0.00000000		0.00000000		0.00000000		0.00000000		0.00000000		-0.00014249
Mg		4.08719988		4.08719988		0.00000000		0.00000000		0.00000000		-0.00014249
