# total energy = -21541.7948191 eV

CRYSTAL
PRIMVEC
		5.18480002		0.00000000		0.20739179
		0.00000000		8.92299974		0.00000000
		0.22317657		-0.11066984		9.18242628
PRIMECORD
   42 1
Mg		0.00000000		0.00000000		0.00000000		0.00000000		0.00000000		0.00000000
Mg		2.59240001		4.46149987		0.10369590		0.00000000		0.00000000		0.00000000
Mg		2.59240001		1.48648307		0.10369590		 0.00004464		 0.00002397		-0.00006017
Mg		2.59240001		7.43651771		0.10369590		-0.00004464		-0.00002397		 0.00006017
Mg		0.00000000		5.94798293		0.00000000		 0.00004486		 0.00009811		-0.00005844
Mg		0.00000000		2.97501680		0.00000000		-0.00004486		-0.00009811		 0.00005844
Si		4.38735710		1.45641883		2.84498182		 0.00020528		-0.00031984		 0.00017811
Si		1.02062105		7.35591055		6.54483470		-0.00020528		 0.00031984		-0.00017811
Si		1.79495708		5.91791870		2.74128592		 0.00015196		 0.00021223		 0.00031341
Si		3.61302106		2.89440964		6.64853060		-0.00015196		-0.00021223		-0.00031341
Si		1.79495708		2.94067065		2.74128592		 0.00005495		-0.00025240		 0.00031115
Si		3.61302106		5.87165873		6.64853060		-0.00005495		 0.00025240		-0.00031115
Si		4.38735710		7.40217052		2.84498182		 0.00009342		 0.00023336		 0.00018288
Si		1.02062105		1.41015886		6.54483470		-0.00009342		-0.00023336		-0.00018288
O		1.75594711		2.95861195		1.14904072		-0.00007392		 0.00041260		 0.00053313
O		3.65203104		5.85371795		8.24077580		 0.00007392		-0.00041260		-0.00053313
O		4.34834660		7.42011182		1.25273713		-0.00007561		 0.00035113		 0.00052457
O		1.05963103		1.39221808		8.13707990		 0.00007561		-0.00035113		-0.00052457
O		4.34834660		1.47694786		1.25273713		-0.00023734		-0.00004893		 0.00054223
O		1.05963103		7.33538152		8.13707990		 0.00023734		 0.00004893		-0.00054223
O		1.75594711		5.93844773		1.14904072		-0.00023372		-0.00011271		 0.00053519
O		3.65203104		2.87388165		8.24077580		 0.00023372		 0.00011271		-0.00053519
O		1.75151315		-0.01246177		1.10299609		-0.00045753		 0.00007782		 0.00042056
O		3.65646499		-0.09820911		8.28682095		 0.00045753		-0.00007782		-0.00042056
O		4.34391264		4.44903862		1.20669198		-0.00045909		 0.00007571		 0.00037957
O		1.06406498		4.36329076		8.18312453		 0.00045909		-0.00007571		-0.00037957
O		1.90066370		4.42297610		3.26932085		-0.00031005		-0.00025886		 0.00036699
O		3.50731393		4.38935380		6.12049567		 0.00031005		 0.00025886		-0.00036699
O		4.49306371		-0.03852481		3.37301674		-0.00033862		-0.00022424		 0.00025906
O		0.91491392		-0.07214607		6.01679977		 0.00033862		 0.00022424		-0.00025906
O		3.05840109		2.11174068		3.32296884		 0.00025796		-0.00047088		-0.00059210
O		2.34957706		6.70058870		6.06684768		-0.00025796		 0.00047088		 0.00059210
O		0.46600108		6.57324055		3.21927294		 0.00071683		-0.00080375		-0.00055651
O		4.94197707		2.23908883		6.17054357		-0.00071683		 0.00080375		 0.00055651
O		0.46594919		2.27253314		3.21927087		 0.00046853		 0.00065778		-0.00035148
O		4.94202896		6.53979675		6.17054565		-0.00046853		-0.00065778		 0.00035148
O		3.05834868		6.73403249		3.32296677		 0.00001717		 0.00032807		-0.00039440
O		2.34962895		2.07829585		6.06684975		-0.00001717		-0.00032807		 0.00039440
H		1.77194670		-0.00881394		1.93309772		-0.00001939		-0.00005801		-0.00073083
H		3.63603092		8.82114384		7.45671880		 0.00001939		 0.00005801		 0.00073083
H		4.36434671		4.45268593		2.03679414		-0.00001767		-0.00005693		-0.00069271
H		1.04362988		4.35964293		7.35302290		 0.00001767		 0.00005693		 0.00069271
