# total energy = -21542.1240449 eV

CRYSTAL
PRIMVEC
		5.18479837		0.00000000		0.41478283
		0.00000000		8.92299839		0.00000000
		0.59070339		-0.11066944		9.17664815
PRIMECORD
   42 1
Mg		0.00000000		0.00000000		0.00000000		0.00000000		0.00000000		0.00000000
Mg		2.59239971		4.46149972		0.20739193		0.00000000		0.00000000		0.00000000
Mg		2.59239971		1.48648294		0.20739193		 0.00008480		-0.00058222		 0.00002076
Mg		2.59239971		7.43651754		0.20739193		-0.00008480		 0.00058222		-0.00002076
Mg		0.00000000		5.94798266		0.00000000		 0.00008499		-0.00069348		 0.00001841
Mg		0.00000000		2.97501678		0.00000000		-0.00008499		 0.00069348		-0.00001841
Si		4.49430785		1.45641905		3.01619910		 0.00028865		 0.00022578		-0.00024246
Si		1.28119808		7.35591095		6.57523655		-0.00028865		-0.00022578		 0.00024246
Si		1.90190814		5.91791877		2.80880665		 0.00032146		-0.00061312		-0.00042065
Si		3.87359779		2.89440967		6.78262901		-0.00032146		 0.00061312		 0.00042065
Si		1.90190814		2.94067113		2.80880665		 0.00030659		 0.00022725		-0.00029449
Si		3.87359779		5.87165887		6.78262901		-0.00030659		-0.00022725		 0.00029449
Si		4.49430785		7.40217084		3.01619910		 0.00029337		-0.00056851		-0.00012595
Si		1.28119808		1.41015915		6.57523655		-0.00029337		 0.00056851		 0.00012595
O		1.79916818		2.95861167		1.21755002		 0.00014675		 0.00013334		 0.00067618
O		3.97633670		5.85371780		8.37388460		-0.00014675		-0.00013334		-0.00067618
O		4.39156789		7.42011191		1.42494195		 0.00014163		 0.00022504		 0.00070363
O		1.38393699		1.39221809		8.16649266		-0.00014163		-0.00022504		-0.00070363
O		4.39156789		1.47694780		1.42494195		-0.00000301		-0.00015522		 0.00063432
O		1.38393699		7.33538168		8.16649266		 0.00000301		 0.00015522		-0.00063432
O		1.79916818		5.93844804		1.21755002		 0.00000035		-0.00006132		 0.00062233
O		3.97633670		2.87388196		8.37388460		-0.00000035		 0.00006132		-0.00062233
O		1.79289586		-0.01246195		1.17140195		-0.00062210		 0.00004628		-0.00011341
O		3.98260903		-0.09820905		8.42003371		 0.00062210		-0.00004628		 0.00011341
O		4.38529660		4.44903881		1.37879388		-0.00061812		 0.00004829		-0.00016039
O		1.39020880		4.36329067		8.21264177		 0.00061812		-0.00004829		 0.00016039
O		2.02859986		4.42297581		3.34023008		-0.00031626		-0.00008899		 0.00022074
O		3.74690502		4.38935367		6.25120454		 0.00031626		 0.00008899		-0.00022074
O		4.62100009		-0.03852495		3.54762202		-0.00028248		-0.00012108		 0.00039621
O		1.15450480		-0.07214605		6.04381260		 0.00028248		 0.00012108		-0.00039621
O		3.18663066		2.11174107		3.44017586		 0.00015570		-0.00035415		-0.00031877
O		2.58887370		6.70058892		6.15125875		-0.00015570		 0.00035415		 0.00031877
O		0.59423095		6.57324079		3.23278393		-0.00052809		 0.00016055		-0.00043067
O		5.18127393		2.23908869		6.35865069		 0.00052809		-0.00016055		 0.00043067
O		0.59417894		2.27253294		3.23277977		-0.00042706		-0.00045286		-0.00043301
O		5.18132594		6.53979654		6.35865485		 0.00042706		 0.00045286		 0.00043301
O		3.18657969		6.73403266		3.44017170		 0.00024448		 0.00005637		-0.00031319
O		2.58892572		2.07829578		6.15126291		-0.00024448		-0.00005637		 0.00031319
H		1.84655469		-0.00881423		2.00099206		-0.00030089		-0.00007703		 0.00030105
H		3.92894967		8.82114371		7.59044360		 0.00030089		 0.00007703		-0.00030105
H		4.43895492		4.45268600		2.20838399		-0.00030683		-0.00007832		 0.00034143
H		1.33654996		4.35964295		7.38305167		 0.00030683		 0.00007832		-0.00034143
