# total energy = -24711.7348011 eV

CRYSTAL
PRIMVEC
		9.20099977		0.00000000		0.00000000
		0.00000000		7.97442369		0.00000000
		-0.97849872		0.00000000		4.80947299
PRIMECORD
   40 1
Si		2.54259968		0.72965952		1.01576001		 0.00007825		 0.00052006		 0.00038396
Si		5.67990229		7.24476509		3.79371022		-0.00007825		-0.00052006		-0.00038396
Si		6.16915073		0.72965952		1.38897464		-0.00007794		 0.00051963		-0.00038352
Si		2.05335124		7.24476509		3.42049467		 0.00007794		-0.00051963		 0.00038352
Si		7.14309956		4.71687229		1.01576001		-0.00070531		 0.00011278		 0.00000189
Si		1.07940241		3.25755324		3.79371022		 0.00070531		-0.00011278		-0.00000189
Si		1.56865085		4.71687229		1.38897464		 0.00070795		 0.00011017		 0.00000079
Si		6.65385112		3.25755324		3.42049467		-0.00070795		-0.00011017		-0.00000079
Mg		-0.24462422		7.22243702		1.20236825		 0.00000004		-0.00047765		-0.00000003
Mg		-0.73387266		0.75198759		3.60710290		-0.00000004		 0.00047765		 0.00000003
Mg		4.35587567		3.23522518		1.20236825		-0.00000003		-0.00043762		 0.00000004
Mg		3.86662722		4.73920128		3.60710290		 0.00000003		 0.00043762		-0.00000004
Mg		-0.24462422		2.18658723		1.20236825		 0.00000001		-0.00015036		 0.00000007
Mg		-0.73387266		5.78783830		3.60710290		-0.00000001		 0.00015036		-0.00000007
Mg		4.35587567		6.17380000		1.20236825		 0.00000001		-0.00020811		 0.00000006
Mg		3.86662722		1.80062461		3.60710290		-0.00000001		 0.00020811		-0.00000006
O		0.98190953		0.72886180		0.66851612		-0.00019713		 0.00084959		-0.00015464
O		7.24059152		7.24556282		4.14095411		 0.00019713		-0.00084959		 0.00015464
O		7.72984088		0.72886180		1.73621854		 0.00019680		 0.00084974		 0.00015445
O		0.49266109		7.24556282		3.07325170		-0.00019680		-0.00084974		-0.00015445
O		5.58241126		4.71607456		0.66851612		 0.00030409		 0.00088957		-0.00003019
O		2.64009163		3.25835005		4.14095411		-0.00030409		-0.00088957		 0.00003019
O		3.12934099		4.71607456		1.73621854		-0.00030587		 0.00088965		 0.00002959
O		5.09316190		3.25835005		3.07325170		 0.00030587		-0.00088965		-0.00002959
O		3.13727133		1.89472324		1.76507563		 0.00020229		-0.00032833		 0.00055816
O		5.08523064		6.07970229		3.04439460		-0.00020229		 0.00032833		-0.00055816
O		5.57448000		1.89472324		0.63965994		-0.00020241		-0.00032796		-0.00055844
O		2.64802197		6.07970229		4.16981121		 0.00020241		 0.00032796		 0.00055844
O		7.73777122		5.88193601		1.76507563		 0.00047121		 0.00009871		 0.00080343
O		0.48473075		2.09248861		3.04439460		-0.00047121		-0.00009871		-0.00080343
O		0.97398011		5.88193601		0.63965994		-0.00047244		 0.00010129		-0.00080510
O		7.24852278		2.09248861		4.16981121		 0.00047244		-0.00010129		 0.00080510
O		2.38943063		0.48883164		4.40066613		-0.00090295		-0.00004450		 0.00008143
O		5.83307042		7.48559298		0.40880502		 0.00090295		 0.00004450		-0.00008143
O		5.34382197		0.48883164		2.81353968		 0.00090302		-0.00004448		-0.00008144
O		2.87867999		7.48559298		1.99592964		-0.00090302		 0.00004448		 0.00008144
O		6.98993144		4.47604532		4.40066613		-0.00079453		 0.00000408		 0.00010299
O		1.23257053		3.49838021		0.40880502		 0.00079453		-0.00000408		-0.00010299
O		0.74332209		4.47604532		2.81353968		 0.00079466		 0.00000418		-0.00010320
O		7.47918080		3.49838021		1.99592964		-0.00079466		-0.00000418		 0.00010320
