# total energy = -24716.1202684 eV

CRYSTAL
PRIMVEC
		9.20099977		0.00000000		0.00000000
		0.00000000		8.83652057		0.00000000
		-0.97849872		0.00000000		4.80947299
PRIMECORD
   40 1
Si		2.54259968		0.80854154		1.01576001		 0.00020262		 0.00004247		-0.00037205
Si		5.67990229		8.02798271		3.79371022		-0.00020262		-0.00004247		 0.00037205
Si		6.16915073		0.80854154		1.38897464		-0.00020199		 0.00004177		 0.00037255
Si		2.05335124		8.02798271		3.42049467		 0.00020199		-0.00004177		-0.00037255
Si		7.14309956		5.22680458		1.01576001		 0.00023437		 0.00006025		-0.00035835
Si		1.07940241		3.60972059		3.79371022		-0.00023437		-0.00006025		 0.00035835
Si		1.56865085		5.22680458		1.38897464		-0.00023377		 0.00005956		 0.00035885
Si		6.65385112		3.60972059		3.42049467		 0.00023377		-0.00005956		-0.00035885
Mg		-0.24462422		8.00324122		1.20236825		-0.00000001		 0.00085679		 0.00000002
Mg		-0.73387266		0.83328394		3.60710290		 0.00000001		-0.00085679		-0.00000002
Mg		4.35587567		3.58497910		1.20236825		-0.00000001		 0.00085431		 0.00000001
Mg		3.86662722		5.25154699		3.60710290		 0.00000001		-0.00085431		-0.00000001
Mg		-0.24462422		2.42297472		1.20236825		 0.00000001		-0.00035119		 0.00000002
Mg		-0.73387266		6.41354953		3.60710290		-0.00000001		 0.00035119		-0.00000002
Mg		4.35587567		6.84123776		1.20236825		 0.00000001		-0.00034747		 0.00000003
Mg		3.86662722		1.99528741		3.60710290		-0.00000001		 0.00034747		-0.00000003
O		0.98190953		0.80765824		0.66851612		-0.00000121		 0.00032286		 0.00013127
O		7.24059152		8.02886693		4.14095411		 0.00000121		-0.00032286		-0.00013127
O		7.72984088		0.80765824		1.73621854		 0.00000076		 0.00032287		-0.00013139
O		0.49266109		8.02886693		3.07325170		-0.00000076		-0.00032287		 0.00013139
O		5.58241126		5.22592128		0.66851612		-0.00002102		 0.00032146		 0.00012697
O		2.64009163		3.61060388		4.14095411		 0.00002102		-0.00032146		-0.00012697
O		3.12934099		5.22592128		1.73621854		 0.00002061		 0.00032149		-0.00012709
O		5.09316190		3.61060388		3.07325170		-0.00002061		-0.00032149		 0.00012709
O		3.13727133		2.09955774		1.76507563		 0.00036873		-0.00049914		 0.00020424
O		5.08523064		6.73696651		3.04439460		-0.00036873		 0.00049914		-0.00020424
O		5.57448000		2.09955774		0.63965994		-0.00036901		-0.00049855		-0.00020461
O		2.64802197		6.73696651		4.16981121		 0.00036901		 0.00049855		 0.00020461
O		7.73777122		6.51782078		1.76507563		 0.00035827		-0.00051609		 0.00019532
O		0.48473075		2.31870439		3.04439460		-0.00035827		 0.00051609		-0.00019532
O		0.97398011		6.51782078		0.63965994		-0.00035855		-0.00051554		-0.00019569
O		7.24852278		2.31870439		4.16981121		 0.00035855		 0.00051554		 0.00019569
O		2.38943063		0.54167942		4.40066613		-0.00011507		-0.00014120		-0.00012680
O		5.83307042		8.29484575		0.40880502		 0.00011507		 0.00014120		 0.00012680
O		5.34382197		0.54167942		2.81353968		 0.00011512		-0.00014115		 0.00012675
O		2.87867999		8.29484575		1.99592964		-0.00011512		 0.00014115		-0.00012675
O		6.98993144		4.95994062		4.40066613		-0.00011896		-0.00014223		-0.00012711
O		1.23257053		3.87658363		0.40880502		 0.00011896		 0.00014223		 0.00012711
O		0.74332209		4.95994062		2.81353968		 0.00011903		-0.00014217		 0.00012704
O		7.47918080		3.87658363		1.99592964		-0.00011903		 0.00014217		-0.00012704
