# total energy = -41274.409923 eV

CRYSTAL
PRIMVEC
		5.69780017		-0.22791178		0.00000000
		-0.45848086		11.46199858		0.00000000
		0.00000000		0.00000000		8.25709754
PRIMECORD
   56 1
Mg		0.00000000		0.00000000		0.00000000		0.00000000		0.00000000		0.00000000
Mg		-0.22923986		5.73099986		0.00000000		0.00000000		0.00000000		0.00000000
Mg		2.61966023		5.61704397		4.12854991		0.00000000		0.00000000		0.00000000
Mg		2.84890009		-0.11395589		4.12854991		0.00000000		0.00000000		0.00000000
Mg		-0.11462021		2.86550022		8.00773578		 0.00000001		 0.00000001		-0.00010902
Mg		-0.34386007		8.59650008		0.24936404		-0.00000001		-0.00000001		 0.00010902
Mg		2.50504002		8.48254419		3.87918587		-0.00000000		-0.00000000		-0.00010902
Mg		2.73427987		2.75154376		4.37791509		0.00000000		0.00000000		 0.00010902
Mg		1.36626919		1.39755003		2.06427524		-0.00025174		 0.00002406		 0.00050423
Mg		3.87305070		9.83653791		6.19282515		 0.00025174		-0.00002406		-0.00050423
Mg		4.10229113		4.10553805		2.06427524		 0.00025173		-0.00002406		 0.00050423
Mg		1.13702876		7.12854989		6.19282515		-0.00025173		 0.00002406		-0.00050423
Mg		3.98592885		7.01459401		6.19282515		-0.00025175		 0.00002405		 0.00050424
Mg		1.25339104		4.21949394		2.06427524		 0.00025175		-0.00002405		-0.00050424
Mg		1.02415118		9.95049380		6.19282515		 0.00025174		-0.00002406		 0.00050424
Mg		4.21516870		1.28359414		2.06427524		-0.00025174		 0.00002406		-0.00050424
Si		-0.05497186		1.37429411		5.09050207		-0.00047028		-0.00025360		-0.00076462
Si		-0.40350786		10.08770561		3.16659775		 0.00047028		 0.00025360		 0.00076462
Si		-0.17426800		4.35670575		5.09050207		 0.00047030		 0.00025357		-0.00076462
Si		-0.28421171		7.10529397		3.16659775		-0.00047030		-0.00025357		 0.00076462
Si		2.56468780		6.99133809		0.96195216		-0.00047025		-0.00025359		-0.00076467
Si		2.67463208		4.24274986		7.29514766		 0.00047025		 0.00025359		 0.00076467
Si		2.44539223		9.97374972		0.96195216		 0.00047029		 0.00025355		-0.00076467
Si		2.79392823		1.26033822		7.29514766		-0.00047029		-0.00025355		 0.00076467
O		-0.11462021		2.86550022		1.80169884		-0.00000001		 0.00000001		 0.00012004
O		-0.34386007		8.59650008		6.45540098		 0.00000001		-0.00000001		-0.00012004
O		2.50504002		8.48254419		5.93024875		-0.00000001		 0.00000002		 0.00012002
O		2.73427987		2.75154376		2.32685107		 0.00000001		-0.00000002		-0.00012002
O		-0.11462021		2.86550022		5.90960622		-0.00000000		-0.00000001		 0.00059398
O		-0.34386007		8.59650008		2.34749417		0.00000000		 0.00000001		-0.00059398
O		2.50504002		8.48254419		1.78105574		-0.00000001		-0.00000002		 0.00059397
O		2.73427987		2.75154376		6.47604408		 0.00000001		 0.00000002		-0.00059397
O		-0.45380321		11.34508659		2.11794582		-0.00001738		 0.00035577		-0.00030269
O		-0.00467707		0.11691313		6.13915400		 0.00001738		-0.00035577		 0.00030269
O		-0.23391693		5.84791299		2.11794582		 0.00001739		-0.00035579		-0.00030268
O		-0.22456278		5.61408673		6.13915400		-0.00001739		 0.00035579		 0.00030268
O		2.62433673		5.50013084		6.24649573		-0.00001735		 0.00035579		-0.00030272
O		2.61498373		5.73395710		2.01060409		 0.00001735		-0.00035579		 0.00030272
O		2.84422415		0.00295724		6.24649573		 0.00001736		-0.00035581		-0.00030272
O		2.39509687		11.23113070		2.01060409		-0.00001736		 0.00035581		 0.00030272
O		1.42578810		1.34596081		8.20012587		-0.00056397		-0.00021142		 0.00043998
O		3.81353179		9.88812599		0.05697395		 0.00056397		 0.00021142		-0.00043998
O		4.04277221		4.15712670		8.20012587		 0.00056399		 0.00021140		 0.00043998
O		1.19654824		7.07696068		0.05697395		-0.00056399		-0.00021140		-0.00043998
O		3.93035311		6.96760887		0.05697395		 0.00004029		 0.00029396		-0.00000237
O		1.30896792		4.26647908		8.20012587		-0.00004029		-0.00029396		 0.00000237
O		1.07972806		9.99747894		0.05697395		-0.00004026		-0.00029394		-0.00000236
O		4.15959297		1.23660901		8.20012587		 0.00004026		 0.00029394		 0.00000236
O		4.04544776		6.96300479		4.07157596		-0.00056397		-0.00021141		 0.00044000
O		1.19387213		4.27108316		4.18552386		 0.00056397		 0.00021141		-0.00044000
O		0.96463227		10.00208188		4.07157596		 0.00056402		 0.00021142		 0.00044001
O		4.27468819		1.23200493		4.18552386		-0.00056402		-0.00021142		-0.00044001
O		1.31069288		1.35056490		4.18552386		 0.00004031		 0.00029395		-0.00000237
O		3.92862815		9.88352305		4.07157596		-0.00004031		-0.00029395		 0.00000237
O		4.15786800		4.15252319		4.18552386		-0.00004028		-0.00029396		-0.00000238
O		1.08145302		7.08156476		4.07157596		 0.00004028		 0.00029396		 0.00000238
