# total energy = -41261.6990131 eV

CRYSTAL
PRIMVEC
		5.69780212		0.91165088		0.00000000
		1.83391906		11.46200276		0.00000000
		0.00000000		0.00000000		8.25710194
PRIMECORD
   56 1
Mg		0.00000000		0.00000000		0.00000000		0.00000000		0.00000000		0.00000000
Mg		0.91696011		5.73100022		0.00000000		0.00000000		0.00000000		0.00000000
Mg		3.76586001		6.18682393		4.12854982		0.00000000		0.00000000		0.00000000
Mg		2.84889991		0.45582429		4.12854982		0.00000000		0.00000000		0.00000000
Mg		0.45847976		2.86549982		8.00773622		-0.00000001		-0.00000001		 0.00000860
Mg		1.37543987		8.59650005		0.24936399		 0.00000001		 0.00000001		-0.00000860
Mg		4.22433978		9.05232376		3.87918583		-0.00000000		-0.00000002		 0.00000848
Mg		3.30738025		3.32132411		4.37791496		0.00000000		 0.00000002		-0.00000848
Mg		1.65717393		1.68244021		2.06427520		 0.00027065		-0.00036659		-0.00000039
Mg		5.87454610		10.69120823		6.19282502		-0.00027065		 0.00036659		 0.00000039
Mg		4.95758600		4.96020801		2.06427520		-0.00027067		 0.00036658		-0.00000039
Mg		2.57413519		7.41343986		6.19282502		 0.00027067		-0.00036658		 0.00000039
Mg		5.42303509		7.86926414		6.19282502		 0.00027065		-0.00036653		-0.00000006
Mg		2.10868609		4.50438372		2.06427520		-0.00027065		 0.00036653		 0.00000006
Mg		3.02564619		10.23538395		6.19282502		-0.00027062		 0.00036652		-0.00000003
Mg		4.50607499		2.13826392		2.06427520		 0.00027062		-0.00036652		 0.00000003
Si		0.21988714		1.37429389		5.09050188		 0.00037573		 0.00028438		 0.00000763
Si		1.61403307		10.08770598		3.16659776		-0.00037573		-0.00028438		-0.00000763
Si		0.69707297		4.35670575		5.09050188		-0.00037579		-0.00028446		 0.00000744
Si		1.13684724		7.10529412		3.16659776		 0.00037579		 0.00028446		-0.00000744
Si		3.98574715		7.56111783		0.96195206		 0.00037616		 0.00028578		 0.00000497
Si		3.54597288		4.81253004		7.29514815		-0.00037616		-0.00028578		-0.00000497
Si		4.46293298		10.54353026		0.96195206		-0.00037623		-0.00028593		 0.00000472
Si		3.06878705		1.83011818		7.29514815		 0.00037623		 0.00028593		-0.00000472
O		0.45847976		2.86549982		1.80169902		-0.00000001		-0.00000000		 0.00010386
O		1.37543987		8.59650005		6.45540119		 0.00000001		0.00000000		-0.00010386
O		4.22433978		9.05232376		5.93024884		 0.00000001		 0.00000001		 0.00010347
O		3.30738025		3.32132411		2.32685080		-0.00000001		-0.00000001		-0.00010347
O		0.45847976		2.86549982		5.90960627		-0.00000000		-0.00000002		 0.00005904
O		1.37543987		8.59650005		2.34749394		0.00000000		 0.00000002		-0.00005904
O		4.22433978		9.05232376		1.78105587		-0.00000001		 0.00000001		 0.00005955
O		3.30738025		3.32132411		6.47604376		 0.00000001		-0.00000001		-0.00005955
O		1.81521415		11.34508726		2.11794622		 0.00036820		-0.00017821		-0.00022337
O		0.01870606		0.11691319		6.13915399		-0.00036820		 0.00017821		 0.00022337
O		0.93566617		5.84791284		2.11794622		-0.00036818		 0.00017811		-0.00022348
O		0.89825404		5.61408703		6.13915399		 0.00036818		-0.00017811		 0.00022348
O		3.74715395		6.06991074		6.24649604		 0.00036817		-0.00017684		-0.00022517
O		3.78456608		6.30373712		2.01060418		-0.00036817		 0.00017684		 0.00022517
O		2.86760597		0.57273690		6.24649604		-0.00036818		 0.00017670		-0.00022534
O		4.66411405		11.80091097		2.01060418		 0.00036818		-0.00017670		 0.00022534
O		1.70683576		1.64236106		8.20012629		 0.00050175		 0.00030453		 0.00004584
O		5.82488426		10.73128680		0.05697392		-0.00050175		-0.00030453		-0.00004584
O		4.90792416		5.00028716		8.20012629		-0.00050174		-0.00030453		 0.00004584
O		2.62379587		7.37336129		0.05697392		 0.00050174		 0.00030453		-0.00004584
O		5.35760080		7.81076975		0.05697392		 0.00039487		-0.00026700		 0.00033695
O		2.17411923		4.56287927		8.20012629		-0.00039487		 0.00026700		-0.00033695
O		3.09107876		10.29387776		0.05697392		-0.00039477		 0.00026701		 0.00033702
O		4.44064127		2.07977011		8.20012629		 0.00039477		-0.00026701		-0.00033702
O		5.47269693		7.82918500		4.07157589		 0.00050142		 0.00030449		 0.00004600
O		2.05902425		4.54446287		4.18552374		-0.00050142		-0.00030449		-0.00004600
O		2.97598378		10.27546309		4.07157589		-0.00050140		-0.00030448		 0.00004601
O		4.55573683		2.09818477		4.18552374		 0.00050140		 0.00030448		-0.00004601
O		1.59174078		1.62394582		4.18552374		 0.00039554		-0.00026690		 0.00033631
O		5.93997924		10.74970205		4.07157589		-0.00039554		 0.00026690		-0.00033631
O		5.02301914		5.01870298		4.18552374		-0.00039548		 0.00026690		 0.00033638
O		2.50870089		7.35494605		4.07157589		 0.00039548		-0.00026690		-0.00033638
