# total energy = -24715.747519 eV

CRYSTAL
PRIMVEC
		9.53870002		0.00000000		0.00000000
		0.00000000		8.66009990		0.00000000
		-1.68714803		0.00000000		4.98419015
PRIMECORD
   40 1
Mg		-0.42178796		7.83046288		1.24604801		 0.00000003		 0.00069487		-0.00000008
Mg		-1.26536388		0.82963702		3.73814309		-0.00000003		-0.00069487		 0.00000008
Mg		4.34756205		3.50041293		1.24604801		 0.00000001		 0.00070526		-0.00000002
Mg		3.50398613		5.15968697		3.73814309		-0.00000001		-0.00070526		 0.00000002
Mg		-0.42178796		2.47332482		1.24604801		 0.00000004		-0.00079607		-0.00000002
Mg		-1.26536388		6.18677508		3.73814309		-0.00000004		 0.00079607		 0.00000002
Mg		4.34756205		6.80337477		1.24604801		-0.00000000		-0.00080808		-0.00000008
Mg		3.50398613		1.85672513		3.73814309		0.00000000		 0.00080808		 0.00000008
Si		2.37296148		0.79655585		1.22461646		 0.00020980		-0.00009678		 0.00014078
Si		5.47858670		7.86354405		3.75957464		-0.00020980		 0.00009678		-0.00014078
Si		6.32216262		0.79655585		1.26747957		-0.00021106		-0.00009571		-0.00014166
Si		1.52938461		7.86354405		3.71671059		 0.00021106		 0.00009571		 0.00014166
Si		7.14231149		5.12660581		1.22461646		 0.00011282		-0.00017118		 0.00008958
Si		0.70923669		3.53349410		3.75957464		-0.00011282		 0.00017118		-0.00008958
Si		1.55281261		5.12660581		1.26747957		-0.00011283		-0.00017123		-0.00008958
Si		6.29873462		3.53349410		3.71671059		 0.00011283		 0.00017123		 0.00008958
O		0.84504584		0.71705556		0.68781754		-0.00019059		-0.00011423		-0.00034036
O		7.00650234		7.94304339		4.29637262		 0.00019059		 0.00011423		 0.00034036
O		7.85007827		0.71705556		1.80427659		 0.00019135		-0.00011425		 0.00034070
O		0.00146991		7.94304339		3.17991357		-0.00019135		 0.00011425		-0.00034070
O		5.61439585		5.04710742		0.68781754		-0.00012888		-0.00010924		-0.00031726
O		2.23715233		3.61299439		4.29637262		 0.00012888		 0.00010924		 0.00031726
O		3.08072825		5.04710742		1.80427659		 0.00012887		-0.00010926		 0.00031732
O		4.77081993		3.61299439		3.17991357		-0.00012887		 0.00010926		-0.00031732
O		2.93192644		2.23170764		1.58447441		-0.00037035		 0.00001049		-0.00027510
O		4.91962174		6.42839321		3.39971669		 0.00037035		-0.00001049		 0.00027510
O		5.76319766		2.23170764		0.90762066		 0.00037077		 0.00000940		 0.00027544
O		2.08834861		6.42839321		4.07657044		-0.00037077		-0.00000940		-0.00027544
O		7.70127645		6.56175664		1.58447441		-0.00032789		 0.00008484		-0.00025502
O		0.15027173		2.09834231		3.39971669		 0.00032789		-0.00008484		 0.00025502
O		0.99384765		6.56175664		0.90762066		 0.00032782		 0.00008488		 0.00025503
O		6.85769958		2.09834231		4.07657044		-0.00032782		-0.00008488		-0.00025503
O		3.33603347		0.05629073		0.12859217		 0.00005665		 0.00000936		 0.00004209
O		4.51551471		8.60380917		4.85559894		-0.00005665		-0.00000936		-0.00004209
O		5.35909063		0.05629073		2.36350386		-0.00005671		 0.00000938		-0.00004219
O		2.49245659		8.60380917		2.62068820		 0.00005671		-0.00000938		 0.00004219
O		8.10538348		4.38634068		0.12859217		 0.00006748		 0.00001474		 0.00005261
O		-0.25383530		4.27375922		4.85559894		-0.00006748		-0.00001474		-0.00005261
O		0.58974062		4.38634068		2.36350386		-0.00006744		 0.00001477		-0.00005274
O		7.26180660		4.27375922		2.62068820		 0.00006744		-0.00001477		 0.00005274
