# total energy = -24716.5096365 eV

CRYSTAL
PRIMVEC
		9.58425822		0.00000000		-0.17936429
		0.00000000		8.99895502		-0.00000920
		-1.11404785		0.00000000		4.95860280
PRIMECORD
   40 1
Si		2.59700151		0.80714114		1.04473856		 0.00003983		 0.00028084		 0.00014270
Si		5.87320242		8.19179731		3.73449811		-0.00001996		-0.00025121		-0.00012880
Si		6.43023646		0.80713562		1.25520499		-0.00004599		 0.00029269		-0.00014673
Si		2.03997574		8.19180927		3.52403812		 0.00003939		-0.00028105		 0.00014267
Si		7.38915362		5.30663981		0.95507022		-0.00004746		 0.00020863		 0.00009734
Si		1.08105399		3.69230876		3.82417013		 0.00005475		-0.00020734		-0.00009365
Si		1.63807883		5.30663981		1.34486781		 0.00004364		 0.00021797		-0.00009957
Si		6.83212877		3.69231520		3.43437070		-0.00003720		-0.00023535		 0.00010612
Mg		-0.27851426		8.11047152		1.23964794		-0.00000001		-0.00003306		-0.00000075
Mg		-0.83553359		0.88848166		3.71895394		-0.00000149		 0.00003384		 0.00000024
Mg		4.51361669		3.61099033		1.14996947		 0.00000001		-0.00002907		-0.00000067
Mg		3.95659368		5.38795917		3.62927179		-0.00000153		 0.00002611		 0.00000019
Mg		-0.27851150		2.40329194		1.23965070		-0.00000066		-0.00080970		-0.00000053
Mg		-0.83553635		6.59566124		3.71895118		 0.00000058		 0.00081003		 0.00000052
Mg		4.51361485		6.90276853		1.14996763		-0.00000072		-0.00081904		-0.00000056
Mg		3.95659460		2.09618097		3.62927271		 0.00000063		 0.00081920		 0.00000052
O		0.99970059		0.83008476		0.68531715		 0.00011068		-0.00027885		-0.00010853
O		7.47051162		8.16886474		4.09392412		-0.00011958		 0.00027692		 0.00010663
O		8.02753278		0.83008108		1.61462456		-0.00010570		-0.00027903		 0.00011027
O		0.44267482		8.16886842		3.16461670		 0.00011063		 0.00027832		-0.00010921
O		5.79181405		5.32956135		0.59563224		 0.00015980		-0.00027382		-0.00009688
O		2.67839631		3.66938723		4.18360903		-0.00016300		 0.00027582		 0.00009613
O		3.23541564		5.32956135		1.70430487		-0.00015602		-0.00027400		 0.00009834
O		5.23479381		3.66938631		3.07493640		 0.00015493		 0.00027726		-0.00009853
O		3.22506911		2.09977764		1.75927256		 0.00013747		 0.00025198		-0.00000471
O		5.24514401		6.89917830		3.01997147		-0.00014888		-0.00027356		-0.00000643
O		5.80216334		2.09977948		0.54066639		-0.00013393		 0.00024417		 0.00000932
O		2.66804519		6.89917094		4.23857304		 0.00013821		-0.00025058		-0.00000596
O		8.01718994		6.59923215		1.66958030		 0.00017483		 0.00031664		 0.00002779
O		0.45302042		2.39971827		3.10966097		-0.00017730		-0.00032123		-0.00003031
O		1.01003975		6.59923767		0.63035405		-0.00017247		 0.00031100		-0.00002446
O		7.46017154		2.39970723		4.14888813		 0.00016752		-0.00030003		 0.00001888
O		2.31246335		0.48933585		4.56989920		 0.00016158		 0.00013078		-0.00004047
O		6.15774701		8.50961549		0.20934299		-0.00016190		-0.00013654		 0.00003609
O		5.60072769		0.48933677		2.68864807		-0.00016220		 0.00012562		 0.00004417
O		2.86948176		8.50961457		2.09059228		 0.00016200		-0.00013165		-0.00004045
O		7.10458694		4.98880692		4.48021614		 0.00017238		 0.00013871		-0.00003423
O		1.36562343		4.01014074		0.29902421		-0.00017302		-0.00013492		 0.00003668
O		0.80860042		4.98881244		2.77832653		-0.00017289		 0.00013374		 0.00003765
O		7.66160902		4.01013522		2.00091566		 0.00017307		-0.00013024		-0.00004082
