# total energy = -49447.4386717 eV

CRYSTAL
PRIMVEC
		5.34387002		0.00000000		0.00000000
		0.00000000		13.96799985		0.00000000
		0.00000000		0.00000000		8.69559874
PRIMECORD
   70 1
Si		2.67193501		0.00000000		0.00000000		0.00000000		0.00000000		0.00000000
Si		0.00000000		6.98399992		4.34779991		0.00000000		0.00000000		0.00000000
Si		2.59717427		5.25923221		0.00000000		 0.00053208		-0.00011277		-0.00000000
Si		2.74669575		8.70876818		0.00000000		-0.00053208		 0.00011277		-0.00000000
Si		0.07476074		12.24323213		4.34779991		-0.00053208		-0.00011277		0.00000000
Si		5.26910928		1.72476879		4.34779991		 0.00053208		 0.00011277		0.00000000
Mg		0.90530502		2.42358827		0.00000000		 0.00038497		-0.00004795		0.00000000
Mg		4.43856500		11.54441211		0.00000000		-0.00038497		 0.00004795		0.00000000
Mg		1.76662999		9.40758820		4.34779991		-0.00038497		-0.00004795		-0.00000000
Mg		3.57724003		4.56041219		4.34779991		 0.00038497		 0.00004795		-0.00000000
Mg		0.84598806		4.51808981		2.81563488		 0.00025061		 0.00019700		-0.00001283
Mg		4.49788196		9.44991111		5.87996493		-0.00025061		-0.00019700		 0.00001283
Mg		4.49788196		9.44991111		2.81563488		-0.00025061		-0.00019700		-0.00001283
Mg		0.84598806		4.51808981		5.87996493		 0.00025061		 0.00019700		 0.00001283
Mg		1.82594695		11.50208920		1.53216502		-0.00025061		 0.00019700		 0.00001283
Mg		3.51792308		2.46591119		7.16343479		 0.00025061		-0.00019700		-0.00001283
Mg		3.51792308		2.46591119		1.53216502		 0.00025061		-0.00019700		 0.00001283
Mg		1.82594695		11.50208920		7.16343479		-0.00025061		 0.00019700		-0.00001283
Mg		2.67193501		6.98399992		2.79363524		0.00000000		0.00000000		-0.00054748
Mg		2.67193501		6.98399992		5.90196404		0.00000000		0.00000000		 0.00054748
Mg		0.00000000		0.00000000		1.55416520		0.00000000		0.00000000		 0.00054748
Mg		0.00000000		0.00000000		7.14143515		0.00000000		0.00000000		-0.00054748
Mg		2.67193501		0.00000000		2.97293918		0.00000000		0.00000000		 0.00024088
Mg		2.67193501		0.00000000		5.72266117		0.00000000		0.00000000		-0.00024088
Mg		0.00000000		6.98399992		1.37486126		0.00000000		0.00000000		-0.00024088
Mg		0.00000000		6.98399992		7.32073802		0.00000000		0.00000000		 0.00024088
O		1.77528706		5.77129787		1.35755674		-0.00020932		-0.00050553		-0.00015018
O		3.56858296		8.19670198		7.33804307		 0.00020932		 0.00050553		 0.00015018
O		3.56858296		8.19670198		1.35755674		 0.00020932		 0.00050553		-0.00015018
O		1.77528706		5.77129787		7.33804307		-0.00020932		-0.00050553		 0.00015018
O		0.89664795		12.75529886		2.99024316		 0.00020932		-0.00050553		 0.00015018
O		4.44722207		1.21270206		5.70535718		-0.00020932		 0.00050553		-0.00015018
O		4.44722207		1.21270206		2.99024316		-0.00020932		 0.00050553		 0.00015018
O		0.89664795		12.75529886		5.70535718		 0.00020932		-0.00050553		-0.00015018
O		2.63500887		3.62092510		0.00000000		-0.00051303		 0.00009685		0.00000000
O		2.70886115		10.34707528		0.00000000		 0.00051303		-0.00009685		0.00000000
O		0.03692614		10.60492503		4.34779991		 0.00051303		 0.00009685		0.00000000
O		5.30694388		3.36307589		4.34779991		-0.00051303		-0.00009685		0.00000000
O		4.22919218		5.78973582		0.00000000		 0.00049805		-0.00074666		-0.00000000
O		1.11467785		8.17826403		0.00000000		-0.00049805		 0.00074666		-0.00000000
O		3.78661286		12.77373628		4.34779991		-0.00049805		-0.00074666		-0.00000000
O		1.55725716		1.19426410		4.34779991		 0.00049805		 0.00074666		-0.00000000
O		1.90455474		1.02064177		1.25773218		 0.00002291		 0.00025675		-0.00013342
O		3.43931528		12.94735915		7.43786817		-0.00002291		-0.00025675		 0.00013342
O		3.43931528		12.94735915		1.25773218		-0.00002291		-0.00025675		-0.00013342
O		1.90455474		1.02064177		7.43786817		 0.00002291		 0.00025675		 0.00013342
O		0.76738027		8.00464223		3.09006826		-0.00002291		 0.00025675		 0.00013342
O		4.57648975		5.96335923		5.60553102		 0.00002291		-0.00025675		-0.00013342
O		4.57648975		5.96335923		3.09006826		 0.00002291		-0.00025675		 0.00013342
O		0.76738027		8.00464223		5.60553102		-0.00002291		 0.00025675		-0.00013342
O		5.25061896		3.51784078		1.38433915		 0.00089228		 0.00042605		-0.00010925
O		0.09325107		10.45015907		7.31126013		-0.00089228		-0.00042605		 0.00010925
O		0.09325107		10.45015907		1.38433915		-0.00089228		-0.00042605		-0.00010925
O		5.25061896		3.51784078		7.31126013		 0.00089228		 0.00042605		 0.00010925
O		2.76518501		10.50184124		2.96346022		-0.00089228		 0.00042605		 0.00010925
O		2.57868395		3.46615914		5.73213905		 0.00089228		-0.00042605		-0.00010925
O		2.57868395		3.46615914		2.96346022		 0.00089228		-0.00042605		 0.00010925
O		2.76518501		10.50184124		5.73213905		-0.00089228		 0.00042605		-0.00010925
O		1.04568795		12.86159485		0.00000000		-0.00029290		 0.00061336		0.00000000
O		4.29818100		1.10640500		0.00000000		 0.00029290		-0.00061336		0.00000000
O		1.62624599		5.87759492		4.34779991		 0.00029290		 0.00061336		0.00000000
O		3.71762296		8.09040493		4.34779991		-0.00029290		-0.00061336		0.00000000
H		4.93292589		4.22671690		0.94347308		 0.00073995		-0.00040815		 0.00071661
H		0.41094414		9.74128295		7.75212727		-0.00073995		 0.00040815		-0.00071661
H		0.41094414		9.74128295		0.94347308		-0.00073995		 0.00040815		 0.00071661
H		4.93292589		4.22671690		7.75212727		 0.00073995		-0.00040815		-0.00071661
H		3.08287915		11.21071682		3.40432683		-0.00073995		-0.00040815		-0.00071661
H		2.26099087		2.75728303		5.29127192		 0.00073995		 0.00040815		 0.00071661
H		2.26099087		2.75728303		3.40432683		 0.00073995		 0.00040815		-0.00071661
H		3.08287915		11.21071682		5.29127192		-0.00073995		-0.00040815		 0.00071661
