# total energy = -11146.5256197 eV	

CRYSTAL	
PRIMVEC	
		7.44100028		0.00000000		0.29763971	
		0.00000000		4.41000211		0.00000000	
		0.33167972		0.00000000		8.29200054	
PRIMCOORD
   12 1	
Ca		0.37123569		1.10250015		5.64993499		-0.00004344		0.00000000		-0.00082753	
Ca		7.40144432		3.30749972		2.93970526		 0.00004344		0.00000000		 0.00082753	
Ca		3.63495330		3.30749972		1.64111723		-0.00045414		0.00000000		-0.00000331	
Ca		4.13772671		1.10250015		6.94852303		 0.00045414		0.00000000		 0.00000331	
Si		2.14135569		1.10250015		3.27793384		-0.00020707		-0.00000000		 0.00055220	
Si		5.63132431		3.30749972		5.31170716		 0.00020707		-0.00000000		-0.00055220	
Si		2.00077589		3.30749972		7.41167568		 0.00017778		-0.00000000		-0.00007301	
Si		5.77190412		1.10250015		1.17796308		-0.00017778		-0.00000000		 0.00007301	
Mg		1.09371424		1.10250015		0.57209707		-0.00030066		-0.00000000		-0.00054869	
Mg		6.67896576		3.30749972		8.01754318		 0.00030066		-0.00000000		 0.00054869	
Mg		2.83496167		3.30749972		4.78111418		 0.00002591		0.00000000		-0.00029146	
Mg		4.93771833		1.10250015		3.80852607		-0.00002591		0.00000000		 0.00029146	
