# total energy = -11145.9297498 eV	

CRYSTAL	
PRIMVEC	
		7.44099778		0.00000000		-0.59527833	
		0.00000000		4.41000132		0.00000000	
		-0.66335706		0.00000000		8.29199684	
PRIMCOORD
   12 1	
Ca		-0.30605794		1.10249996		5.63247809		-0.00024660		0.00000000		 0.00030320	
Ca		7.08369791		3.30749987		2.06424191		 0.00024660		0.00000000		-0.00030320	
Ca		3.45517921		3.30749987		1.21211418		 0.00066732		0.00000000		 0.00048862	
Ca		3.32246077		1.10249996		6.48460583		-0.00066732		0.00000000		-0.00048862	
Si		1.75766891		1.10249996		3.03631810		-0.00025274		0.00000000		 0.00007391	
Si		5.01997107		3.30749987		4.66040191		 0.00025274		0.00000000		-0.00007391	
Si		1.11956816		3.30749987		7.20683158		-0.00068470		-0.00000000		-0.00068837	
Si		5.65807181		1.10249996		0.48988768		 0.00068470		-0.00000000		 0.00068837	
Mg		1.03021035		1.10249996		0.44339185		-0.00047055		0.00000000		 0.00048952	
Mg		5.74742963		3.30749987		7.25332816		 0.00047055		0.00000000		-0.00048952	
Mg		2.27393858		3.30749987		4.46335877		 0.00082714		0.00000000		 0.00000133	
Mg		4.50370064		1.10249996		3.23336124		-0.00082714		0.00000000		-0.00000133	
