# total energy = -66813.5983897 eV

CRYSTAL
PRIMVEC
		18.04876679		-0.00001834		0.00000000
		0.00000000		6.60619152		0.00000000
		0.00000000		0.00000000		10.70265761
PRIMECORD
   112 1
Ca		13.97980663		6.60059862		2.45191438		 0.00056295		 0.00004002		 0.00011116
Ca		4.06896016		0.00557823		8.25075057		-0.00056294		-0.00003999		-0.00011117
Ca		4.06896016		0.00557823		2.45191438		-0.00056293		-0.00003999		 0.00011116
Ca		13.97980663		6.60059862		8.25075057		 0.00056290		 0.00003995		-0.00011118
Ca		13.09332338		3.29750836		2.89941626		-0.00056348		 0.00003786		-0.00011163
Ca		4.95544341		3.30866665		7.80324869		 0.00056349		-0.00003787		 0.00011164
Ca		4.95544341		3.30866665		2.89941626		 0.00056351		-0.00003788		-0.00011162
Ca		13.09332338		3.29750836		7.80324869		-0.00056350		 0.00003792		 0.00011163
Ca		7.38863469		0.97844054		8.04959686		-0.00024333		 0.00016804		-0.00045769
Ca		10.66013211		5.62773630		2.65306809		 0.00024332		-0.00016805		 0.00045767
Ca		10.66013211		5.62773630		8.04959686		 0.00024335		-0.00016807		-0.00045770
Ca		7.38863469		0.97844054		2.65306809		-0.00024335		 0.00016807		 0.00045766
Ca		1.63576889		4.28156932		8.00436754		 0.00024388		 0.00016886		 0.00045820
Ca		16.41299791		2.32460569		2.69829740		-0.00024385		-0.00016884		-0.00045821
Ca		16.41299791		2.32460569		8.00436754		-0.00024384		-0.00016885		 0.00045819
Ca		1.63576889		4.28156932		2.69829740		 0.00024379		 0.00016885		-0.00045821
Ca		5.88418986		5.31219500		0.00000000		-0.00003092		-0.00073468		-0.00000001
Ca		12.16457877		1.29398001		0.00000000		 0.00003093		 0.00073467		-0.00000003
Ca		3.14015135		2.00907723		5.35133247		 0.00003103		-0.00073491		 0.00000005
Ca		14.90861728		4.59709962		5.35133247		-0.00003103		 0.00073491		 0.00000002
Ca		12.13079207		1.10120007		5.35133247		-0.00079632		-0.00047001		 0.00000002
Ca		5.91797656		5.50497678		5.35133247		 0.00079632		 0.00047001		 0.00000001
Ca		14.94230126		4.40425547		0.00000000		 0.00079663		-0.00047291		-0.00000002
Ca		3.10646737		2.20192137		0.00000000		-0.00079662		 0.00047291		-0.00000002
Ca		9.02438340		3.30308842		0.00000000		-0.00000000		-0.00000001		-0.00000003
Ca		0.00000000		0.00000000		5.35133247		 0.00000002		 0.00000001		 0.00000001
Ca		9.02438340		3.30308842		5.35133247		 0.00000001		 0.00000001		-0.00000001
Ca		0.00000000		0.00000000		0.00000000		 0.00000002		-0.00000001		-0.00000002
Si		7.58064238		4.71779735		8.05062042		 0.00000426		 0.00004193		 0.00005684
Si		10.46812625		1.88837950		2.65204453		-0.00000425		-0.00004190		-0.00005681
Si		10.46812625		1.88837950		8.05062042		-0.00000425		-0.00004193		 0.00005683
Si		7.58064238		4.71779551		2.65204453		 0.00000423		 0.00004194		-0.00005679
Si		1.44376854		1.41474378		8.00340451		-0.00000500		 0.00004181		-0.00005509
Si		16.60499826		5.19143307		2.69926043		 0.00000500		-0.00004184		 0.00005507
Si		16.60499826		5.19143307		8.00340451		 0.00000502		-0.00004181		-0.00005509
Si		1.44376854		1.41474378		2.69926043		-0.00000499		 0.00004176		 0.00005506
Si		11.97187587		4.85075214		5.35133247		-0.00032518		 0.00042054		 0.00000004
Si		6.07689092		1.75542288		5.35133247		 0.00032516		-0.00042055		 0.00000001
Si		15.10130000		1.54761052		0.00000000		 0.00032846		 0.00041915		-0.00000000
Si		2.94746679		5.05856633		0.00000000		-0.00032845		-0.00041913		-0.00000005
Si		6.09420709		1.88340110		0.00000000		-0.00041678		-0.00089540		-0.00000009
Si		11.95455970		4.72277575		0.00000000		 0.00041676		 0.00089535		-0.00000006
Si		2.93020565		5.18644733		5.35133247		 0.00041790		-0.00089858		 0.00000007
Si		15.11856298		1.41972768		5.35133247		-0.00041791		 0.00089862		 0.00000006
Mg		9.02438523		0.00000000		5.35133247		0.00000000		-0.00000000		 0.00000001
Mg		0.00000000		3.30309393		0.00000000		0.00000000		 0.00000001		-0.00000001
Mg		9.02438707		0.00000000		0.00000000		-0.00000000		0.00000000		-0.00000002
Mg		0.00000000		3.30309393		5.35133247		 0.00000001		0.00000000		 0.00000001
O		5.19101301		1.70065132		1.33629823		 0.00024735		-0.00023655		 0.00045101
O		12.85775379		4.90552552		9.36636671		-0.00024735		 0.00023657		-0.00045087
O		12.85775379		4.90552552		1.33629823		-0.00024737		 0.00023651		 0.00045099
O		5.19101301		1.70065132		9.36636671		 0.00024739		-0.00023655		-0.00045083
O		3.83337956		5.00367004		4.01502323		-0.00024567		-0.00022218		-0.00044918
O		14.21538723		1.60250497		6.68764171		 0.00024577		 0.00022218		 0.00044900
O		14.21538723		1.60250497		4.01502323		 0.00024566		 0.00022218		-0.00044917
O		3.83337956		5.00367004		6.68764171		-0.00024575		-0.00022220		 0.00044902
O		12.60877150		5.62036042		4.05448539		 0.00013994		-0.00022106		-0.00006603
O		5.43999529		0.98581642		6.64817956		-0.00013989		 0.00022111		 0.00006595
O		5.43999529		0.98581642		4.05448539		-0.00013994		 0.00022103		-0.00006606
O		12.60877150		5.62036042		6.64817956		 0.00013992		-0.00022109		 0.00006599
O		14.46436034		2.31719312		1.29684525		-0.00014009		-0.00021566		 0.00006668
O		3.58440645		4.28898372		9.40581969		 0.00014008		 0.00021566		-0.00006664
O		3.58440645		4.28898372		1.29684525		 0.00014006		 0.00021569		 0.00006668
O		14.46436034		2.31719312		9.40581969		-0.00014004		-0.00021569		-0.00006661
O		8.64179147		5.14804176		9.22152907		-0.00042435		-0.00008656		 0.00005932
O		9.40697533		1.45813325		1.48113587		 0.00042427		 0.00008655		-0.00005926
O		9.40697533		1.45813325		9.22152907		 0.00042435		 0.00008656		 0.00005932
O		8.64179147		5.14804176		1.48113587		-0.00042427		-0.00008655		-0.00005922
O		0.38264329		1.84499736		6.83247569		 0.00042476		-0.00009854		-0.00005862
O		17.66612534		4.76117949		3.87018926		-0.00042476		 0.00009856		 0.00005860
O		17.66612350		4.76117949		6.83247569		-0.00042478		 0.00009852		-0.00005864
O		0.38264329		1.84499736		3.87018926		 0.00042474		-0.00009855		 0.00005860
O		6.10365211		5.34685302		8.43942159		 0.00034522		 0.00047647		 0.00036804
O		11.94511469		1.25932383		2.26324335		-0.00034522		-0.00047646		-0.00036803
O		11.94511469		1.25932383		8.43942159		-0.00034522		-0.00047650		 0.00036804
O		6.10365211		5.34685118		2.26324335		 0.00034520		 0.00047648		-0.00036803
O		2.92078815		2.04368388		7.61455198		-0.00034651		 0.00048326		-0.00036613
O		15.12798048		4.56249113		3.08811297		 0.00034650		-0.00048318		 0.00036617
O		15.12798048		4.56249113		7.61455198		 0.00034654		-0.00048324		-0.00036614
O		2.92078815		2.04368388		3.08811297		-0.00034652		 0.00048317		 0.00036615
O		6.79497994		3.32867746		0.00000000		-0.00052045		-0.00047121		 0.00000003
O		11.25378685		3.27749938		0.00000000		 0.00052048		 0.00047125		 0.00000002
O		2.22942180		6.63170902		5.35133247		 0.00052260		-0.00045573		-0.00000002
O		15.81934683		-0.02553218		5.35133247		-0.00052260		 0.00045568		-0.00000000
O		7.42523894		3.16568169		7.65622451		-0.00019530		-0.00043344		 0.00081013
O		10.62352786		3.44049515		3.04644043		 0.00019533		 0.00043342		-0.00081016
O		10.62352786		3.44049515		7.65622451		 0.00019529		 0.00043345		 0.00081013
O		7.42523894		3.16568169		3.04644043		-0.00019531		-0.00043343		-0.00081015
O		1.59907292		6.46881231		8.39784811		 0.00019987		-0.00042365		-0.00081179
O		16.44969571		0.13736271		2.30481683		-0.00019988		 0.00042361		 0.00081180
O		16.44969571		0.13736271		8.39784811		-0.00019986		 0.00042365		-0.00081180
O		1.59907292		6.46881414		2.30481683		 0.00019985		-0.00042360		 0.00081180
O		7.16536618		0.64868677		0.00000000		-0.00042336		-0.00088459		 0.00000003
O		10.88340062		5.95749008		0.00000000		 0.00042336		 0.00088460		 0.00000005
O		1.85899154		3.95178620		5.35133247		 0.00042380		-0.00088918		-0.00000002
O		16.18977709		2.65438881		5.35133247		-0.00042381		 0.00088919		-0.00000002
O		10.38499948		5.11171449		5.35133247		-0.00034253		 0.00015184		-0.00000002
O		7.66376915		1.49446235		5.35133247		 0.00034251		-0.00015183		-0.00000002
O		16.68819107		1.80851051		0.00000000		 0.00034014		 0.00017541		 0.00000001
O		1.36057572		4.79766451		0.00000000		-0.00034015		-0.00017541		 0.00000004
O		12.56367243		3.34531860		5.35133247		-0.00060990		 0.00009004		-0.00000004
O		5.48509437		3.26085825		5.35133247		 0.00060990		-0.00009001		-0.00000003
O		14.50948327		0.04218798		0.00000000		 0.00060935		 0.00007627		 0.00000002
O		3.53928536		6.56398703		0.00000000		-0.00060936		-0.00007629		 0.00000005
O		7.98594160		5.56070769		6.70865591		-0.00002638		 0.00010245		-0.00003784
O		10.06282520		1.04546732		3.99400904		 0.00002644		-0.00010239		 0.00003783
O		10.06282520		1.04546915		6.70865591		 0.00002638		-0.00010242		-0.00003784
O		7.98594160		5.56070769		3.99400904		-0.00002642		 0.00010237		 0.00003782
O		1.03857204		2.25780637		9.34531399		 0.00002159		 0.00008040		 0.00003757
O		17.01019659		4.34836864		1.35735095		-0.00002162		-0.00008034		-0.00003759
O		17.01019659		4.34836864		9.34531399		-0.00002161		-0.00008040		 0.00003760
O		1.03857020		2.25780637		1.35735095		 0.00002161		 0.00008036		-0.00003759
