# total energy = -66814.5674022 eV

CRYSTAL
PRIMVEC
		18.15468158		-0.00001834		0.00000000
		0.00000000		6.64867483		0.00000000
		0.00000000		0.00000000		10.77854425
PRIMECORD
   112 1
Ca		14.05446243		6.63965538		2.47239478		 0.00041811		-0.00002411		 0.00014730
Ca		4.10021548		0.00900294		8.30615130		-0.00041819		 0.00002412		-0.00014727
Ca		4.10021548		0.00900294		2.47239478		-0.00041802		 0.00002417		 0.00014724
Ca		14.05446243		6.63965538		8.30615130		 0.00041808		-0.00002415		-0.00014719
Ca		13.17754710		3.31533448		2.91686817		-0.00041908		-0.00002689		-0.00014710
Ca		4.97713081		3.33332385		7.86167975		 0.00041918		 0.00002687		 0.00014702
Ca		4.97713081		3.33332385		2.91686817		 0.00041919		 0.00002688		-0.00014715
Ca		13.17754710		3.31533448		7.86167975		-0.00041926		-0.00002685		 0.00014708
Ca		7.43616060		1.00305188		8.09905983		-0.00023211		 0.00030745		-0.00034554
Ca		10.71851915		5.64560644		2.67948625		 0.00023212		-0.00030742		 0.00034557
Ca		10.71851915		5.64560644		8.09905983		 0.00023207		-0.00030753		-0.00034557
Ca		7.43616060		1.00305188		2.67948625		-0.00023212		 0.00030750		 0.00034560
Ca		1.64119303		4.32745717		8.06873453		 0.00023174		 0.00031255		 0.00034649
Ca		16.51348488		2.32119932		2.70981156		-0.00023177		-0.00031250		-0.00034652
Ca		16.51348671		2.32119932		8.06873453		-0.00023170		-0.00031246		 0.00034646
Ca		1.64119303		4.32745717		2.70981156		 0.00023174		 0.00031244		-0.00034653
Ca		5.93969148		5.33758960		0.00000000		-0.00018273		-0.00059482		 0.00000006
Ca		12.21498643		1.31106689		0.00000000		 0.00018273		 0.00059481		-0.00000000
Ca		3.13759428		2.01326686		5.38927396		 0.00018095		-0.00059578		 0.00000006
Ca		15.01708363		4.63539147		5.38927396		-0.00018095		 0.00059576		-0.00000006
Ca		12.20836630		1.11474116		5.38927396		-0.00073463		-0.00026500		-0.00000001
Ca		5.94631161		5.53391532		5.38927396		 0.00073462		 0.00026498		 0.00000002
Ca		15.02360104		4.43904006		0.00000000		 0.00073474		-0.00026628		-0.00000000
Ca		3.13107687		2.20961643		0.00000000		-0.00073474		 0.00026629		 0.00000002
Ca		9.07733895		3.32432824		0.00000000		-0.00000003		-0.00000001		 0.00000001
Ca		0.00000000		0.00000000		5.38927396		 0.00000004		 0.00000001		-0.00000003
Ca		9.07733895		3.32432824		5.38927212		 0.00000001		 0.00000001		-0.00000002
Ca		0.00000000		0.00000000		0.00000000		 0.00000003		-0.00000002		0.00000000
Si		7.61964778		4.75786850		8.10642104		 0.00003188		 0.00026853		 0.00004387
Si		10.53503197		1.89078982		2.67212504		-0.00003185		-0.00026850		-0.00004388
Si		10.53503197		1.89078982		8.10642104		-0.00003189		-0.00026844		 0.00004381
Si		7.61964778		4.75786850		2.67212504		 0.00003180		 0.00026842		-0.00004383
Si		1.45771319		1.43362464		8.06143752		-0.00003293		 0.00026829		-0.00004224
Si		16.69696655		5.21503369		2.71711039		 0.00003290		-0.00026830		 0.00004226
Si		16.69696655		5.21503369		8.06143752		 0.00003298		-0.00026840		-0.00004227
Si		1.45771319		1.43362464		2.71710856		-0.00003291		 0.00026835		 0.00004227
Si		12.04234204		4.88457920		5.38927396		-0.00015879		 0.00040135		-0.00000005
Si		6.11233771		1.76407913		5.38927396		 0.00015873		-0.00040132		-0.00000000
Si		15.18972619		1.56020142		0.00000000		 0.00016252		 0.00040082		 0.00000003
Si		2.96495355		5.08845690		0.00000000		-0.00016250		-0.00040082		 0.00000004
Si		6.13060590		1.89146669		0.00000000		-0.00033041		-0.00082727		 0.00000009
Si		12.02407201		4.75719163		0.00000000		 0.00033037		 0.00082725		 0.00000004
Si		2.94676791		5.21578943		5.38927396		 0.00033086		-0.00083178		-0.00000002
Si		15.20791000		1.43286889		5.38927396		-0.00033086		 0.00083181		-0.00000011
Mg		9.07734262		0.00000000		5.38927396		 0.00000002		-0.00000000		-0.00000002
Mg		0.00000000		3.32433742		0.00000000		 0.00000002		 0.00000001		 0.00000003
Mg		9.07734262		0.00000000		0.00000000		-0.00000001		0.00000000		 0.00000001
Mg		0.00000000		3.32433742		5.38927396		0.00000000		-0.00000000		-0.00000001
O		5.22251045		1.71655138		1.34037597		 0.00029953		-0.00018433		 0.00030439
O		12.93216929		4.93210694		9.43817011		-0.00029958		 0.00018433		-0.00030443
O		12.93216745		4.93210694		1.34037597		-0.00029946		 0.00018428		 0.00030434
O		5.22251045		1.71655138		9.43817011		 0.00029954		-0.00018431		-0.00030436
O		3.85485051		5.04084110		4.04889065		-0.00029911		-0.00017371		-0.00030248
O		14.29982740		1.60781538		6.72965727		 0.00029919		 0.00017371		 0.00030254
O		14.29982740		1.60781538		4.04889065		 0.00029914		 0.00017378		-0.00030253
O		3.85485051		5.04084110		6.72965727		-0.00029923		-0.00017382		 0.00030257
O		12.67035029		5.65808179		4.08618278		 0.00016972		-0.00017860		-0.00004350
O		5.48432945		0.99057470		6.69236514		-0.00016973		 0.00017857		 0.00004352
O		5.48432762		0.99057470		4.08618278		-0.00016972		 0.00017857		-0.00004345
O		12.67035029		5.65808179		6.69236514		 0.00016977		-0.00017859		 0.00004347
O		14.56167758		2.33367834		1.30308935		-0.00016913		-0.00017118		 0.00004481
O		3.59300217		4.31497815		9.47545674		 0.00016913		 0.00017122		-0.00004482
O		3.59300217		4.31497815		1.30308935		 0.00016915		 0.00017127		 0.00004484
O		14.56167758		2.33368017		9.47545674		-0.00016915		-0.00017125		-0.00004485
O		8.68648699		5.18044354		9.28186968		-0.00048011		-0.00012375		-0.00004577
O		9.46819275		1.46821478		1.49667824		 0.00048008		 0.00012376		 0.00004578
O		9.46819275		1.46821478		9.28186968		 0.00048015		 0.00012378		-0.00004571
O		8.68648699		5.18044354		1.49667824		-0.00048006		-0.00012378		 0.00004576
O		0.39090516		1.85617583		6.88595219		 0.00048142		-0.00013798		 0.00004565
O		17.76377275		4.79248066		3.89259572		-0.00048137		 0.00013796		-0.00004564
O		17.76377275		4.79248066		6.88595219		-0.00048139		 0.00013799		 0.00004567
O		0.39090516		1.85617583		3.89259572		 0.00048131		-0.00013798		-0.00004571
O		6.13957032		5.38109647		8.50461770		 0.00034778		 0.00035773		 0.00034410
O		12.01510943		1.26756002		2.27393022		-0.00034772		-0.00035769		-0.00034415
O		12.01510943		1.26756185		8.50461770		-0.00034779		-0.00035776		 0.00034406
O		6.13957032		5.38109647		2.27393022		 0.00034772		 0.00035773		-0.00034411
O		2.93782550		2.05669852		7.66317666		-0.00034926		 0.00036575		-0.00034105
O		15.21685241		4.59195797		3.11536942		 0.00034922		-0.00036569		 0.00034107
O		15.21685241		4.59195797		7.66317666		 0.00034926		-0.00036565		-0.00034107
O		2.93782550		2.05669852		3.11536942		-0.00034923		 0.00036563		 0.00034109
O		6.83856019		3.33694483		0.00000000		-0.00045287		-0.00039614		-0.00000011
O		11.31611955		3.31171166		0.00000000		 0.00045291		 0.00039614		 0.00000005
O		2.23880995		6.66125474		5.38927396		 0.00045443		-0.00038395		-0.00000005
O		15.91586980		-0.01259641		5.38927396		-0.00045447		 0.00038395		 0.00000010
O		7.46185603		3.20199612		7.71334586		-0.00018903		-0.00029060		 0.00059269
O		10.69282188		3.44666220		3.06520206		 0.00018900		 0.00029050		-0.00059271
O		10.69282371		3.44666220		7.71334586		 0.00018899		 0.00029053		 0.00059271
O		7.46185603		3.20199612		3.06520023		-0.00018893		-0.00029044		-0.00059271
O		1.61536553		6.52643809		8.45461726		 0.00019320		-0.00030145		-0.00059406
O		16.53931422		0.12221840		2.32392882		-0.00019315		 0.00030135		 0.00059404
O		16.53931422		0.12221840		8.45461726		-0.00019326		 0.00030143		-0.00059406
O		1.61536553		6.52643809		2.32392882		 0.00019322		-0.00030133		 0.00059404
O		7.20573633		0.65456400		0.00000000		-0.00038860		-0.00064645		 0.00000007
O		10.94894158		5.99409249		0.00000000		 0.00038858		 0.00064647		-0.00000006
O		1.87156594		3.97895461		5.38927396		 0.00038859		-0.00065350		 0.00000010
O		16.28311380		2.66970372		5.38927396		-0.00038860		 0.00065351		-0.00000005
O		10.44664430		5.13448049		5.38927396		-0.00024556		 0.00013536		-0.00000001
O		7.70803361		1.51417784		5.38927396		 0.00024554		-0.00013536		-0.00000002
O		16.78543310		1.81003301		0.00000000		 0.00024357		 0.00015218		0.00000000
O		1.36924481		4.83862531		0.00000000		-0.00024360		-0.00015219		-0.00000000
O		12.64105038		3.37773138		5.38927396		-0.00030815		 0.00014859		 0.00000008
O		5.51362753		3.27092511		5.38927396		 0.00030817		-0.00014855		-0.00000004
O		14.59098115		0.05338296		0.00000000		 0.00030744		 0.00011984		 0.00000001
O		3.56369675		6.59527537		0.00000000		-0.00030746		-0.00011987		-0.00000004
O		8.02699596		5.60401095		6.76132715		-0.00001522		 0.00022509		 0.00000724
O		10.12768195		1.04464737		4.01721894		 0.00001526		-0.00022508		-0.00000717
O		10.12768195		1.04464737		6.76132715		 0.00001527		-0.00022505		 0.00000721
O		8.02699596		5.60401095		4.01721894		-0.00001525		 0.00022499		-0.00000720
O		1.05048424		2.27995969		9.40645254		 0.00000822		 0.00019731		-0.00000974
O		17.10419367		4.36869863		1.37209354		-0.00000825		-0.00019727		 0.00000968
O		17.10419367		4.36869863		9.40645254		-0.00000821		-0.00019733		-0.00000969
O		1.05048424		2.27995969		1.37209354		 0.00000818		 0.00019730		 0.00000968
