# total energy = -9073.74674745 eV

CRYSTAL
PRIMVEC
		5.11310008		0.00000000		0.00000000
		0.00000000		5.18980170		-0.62277559
		-0.00383994		-0.87963729		7.33029878
PRIMECORD
   28 1
Mg		3.87988016		2.44676820		1.51979793		-0.00026506		 0.00015917		-0.00076214
Mg		1.22938202		-0.58618982		5.48167483		-0.00006011		-0.00000499		-0.00007362
Si		1.27731580		-0.15244197		1.82447887		-0.00056652		 0.00029104		 0.00009675
Si		3.83194690		2.00264024		5.17823995		-0.00028757		 0.00021322		 0.00006820
O		1.85420490		4.64644993		2.92475205		 0.00006099		 0.00022871		-0.00037128
O		3.25505627		2.01988315		3.50003103		-0.00017801		 0.00036795		 0.00054731
O		4.40885184		1.99410596		6.82650503		-0.00009294		-0.00074297		 0.00018895
O		0.70040983		0.24013777		0.13012789		-0.00028590		-0.00015165		 0.00048858
O		4.63492194		3.55782082		4.57980783		-0.00059724		-0.00061890		-0.00017776
O		0.47434025		1.30246101		2.06170115		-0.00037726		 0.00040432		 0.00006949
O		2.29781695		2.72498987		5.46724515		-0.00015395		 0.00075826		 0.00002621
O		2.81144524		0.66139023		1.35113209		 0.00075671		 0.00000748		 0.00041117
O		4.84599122		4.07275806		1.82318679		-0.00088066		 0.00031222		 0.00002903
O		0.26327097		1.16119014		4.77348184		 0.00043012		-0.00010008		-0.00025748
O		1.99853084		3.50047382		0.88039709		-0.00036195		 0.00076534		 0.00029665
O		3.11073084		0.34260685		5.88317590		 0.00004309		-0.00040357		-0.00051442
H		2.33481023		3.73726711		3.08442700		-0.00016121		-0.00021090		 0.00050990
H		2.77445196		1.12301522		3.55708198		-0.00016278		 0.00055442		-0.00020089
H		4.92013526		2.76122897		6.78502398		-0.00012731		-0.00058563		 0.00048665
H		0.18912692		1.01957619		-0.01397819		-0.00008380		-0.00057022		-0.00057205
H		1.56163791		2.15279307		5.33361633		 0.00058256		-0.00009154		-0.00037726
H		3.54762427		0.03993280		1.62799982		 0.00060425		-0.00031614		 0.00033045
H		3.95984700		4.29248587		4.76618902		 0.00036895		-0.00039957		-0.00020843
H		1.14941518		2.10397779		1.69097787		 0.00027953		-0.00000173		 0.00004158
H		4.77904131		4.03027127		2.73137818		 0.00028821		 0.00009525		-0.00009919
H		0.33022088		1.33861216		3.84909930		 0.00017068		 0.00004826		-0.00031272
H		2.10639424		3.54991085		-0.04307787		 0.00072974		-0.00002247		 0.00013953
H		3.00286794		0.16861624		6.82159697		 0.00032743		 0.00001475		 0.00019679
