# total energy = -92482.491617 eV

CRYSTAL
PRIMVEC
		18.49999946		0.00000000		0.00000000
		0.00000000		16.10998453		0.00000000
		0.00000000		0.00000000		5.27000235
PRIMECORD
   164 1
Mg		2.40499993		2.73869922		2.00259904		-0.00002908		 0.00004744		 0.00036026
Mg		16.09499953		13.37129086		3.26739960		 0.00002908		-0.00004744		-0.00036026
Mg		6.84499980		13.37129086		4.63760021		 0.00002908		-0.00004744		 0.00036026
Mg		11.65499966		2.73869922		0.63240028		-0.00002908		 0.00004744		-0.00036026
Mg		16.09499953		10.79369333		3.26739960		 0.00002908		 0.00004744		-0.00036026
Mg		2.40499993		5.31629674		2.00259904		-0.00002908		-0.00004744		 0.00036026
Mg		11.65499966		5.31629674		0.63240028		-0.00002908		-0.00004744		-0.00036026
Mg		6.84499980		10.79369333		4.63760021		 0.00002908		 0.00004744		 0.00036026
Mg		2.40499993		1.28879876		4.58489927		 0.00049910		 0.00014140		 0.00003141
Mg		16.09499953		14.82119132		0.68509938		-0.00049910		-0.00014140		-0.00003141
Mg		6.84499980		14.82119132		1.94989994		-0.00049910		-0.00014140		 0.00003141
Mg		11.65499966		1.28879876		3.32010055		 0.00049910		 0.00014140		-0.00003141
Mg		16.09499953		9.34379473		0.68509938		-0.00049910		 0.00014140		-0.00003141
Mg		2.40499993		6.76619720		4.58489927		 0.00049910		-0.00014140		 0.00003141
Mg		11.65499966		6.76619720		3.32010055		 0.00049910		-0.00014140		-0.00003141
Mg		6.84499980		9.34379473		1.94989994		-0.00049910		 0.00014140		 0.00003141
Mg		2.40499993		15.78779224		2.00259904		-0.00012905		 0.00012910		 0.00004448
Mg		16.09499953		0.32219969		3.26739960		 0.00012905		-0.00012910		-0.00004448
Mg		6.84499980		0.32219969		4.63760021		 0.00012905		-0.00012910		 0.00004448
Mg		11.65499966		15.78779224		0.63240028		-0.00012905		 0.00012910		-0.00004448
Mg		16.09499953		7.73279627		3.26739960		 0.00012905		 0.00012910		-0.00004448
Mg		2.40499993		8.37719565		2.00259904		-0.00012905		-0.00012910		 0.00004448
Mg		11.65499966		8.37719565		0.63240028		-0.00012905		-0.00012910		-0.00004448
Mg		6.84499980		7.73279627		4.63760021		 0.00012905		 0.00012910		 0.00004448
Mg		2.40499993		4.02749798		4.58489927		 0.00004387		0.00000000		 0.00044475
Mg		16.09499953		12.08249210		0.68509938		-0.00004387		0.00000000		-0.00044475
Mg		6.84499980		12.08249210		1.94989994		-0.00004387		0.00000000		 0.00044475
Mg		11.65499966		4.02749798		3.32010055		 0.00004387		0.00000000		-0.00044475
Si		0.55499998		13.21019286		1.52829976		 0.00028493		-0.00030548		 0.00014326
Si		17.94500132		2.89979906		3.74170074		-0.00028493		 0.00030548		-0.00014326
Si		8.69499974		2.89979906		4.16329908		-0.00028493		 0.00030548		 0.00014326
Si		9.80499786		13.21019286		1.10669957		 0.00028493		-0.00030548		-0.00014326
Si		17.94500132		5.15519690		3.74170074		-0.00028493		-0.00030548		-0.00014326
Si		0.55499998		10.95479318		1.52829976		 0.00028493		 0.00030548		 0.00014326
Si		9.80499786		10.95479318		1.10669957		 0.00028493		 0.00030548		-0.00014326
Si		8.69499974		5.15519690		4.16329908		-0.00028493		-0.00030548		 0.00014326
Si		0.55499998		14.82119132		4.16329908		 0.00024721		 0.00017642		 0.00015441
Si		17.94500132		1.28879876		1.10669957		-0.00024721		-0.00017642		-0.00015441
Si		8.69499974		1.28879876		1.52829976		-0.00024721		-0.00017642		 0.00015441
Si		9.80499786		14.82119132		3.74170074		 0.00024721		 0.00017642		-0.00015441
Si		17.94500132		6.76619720		1.10669957		-0.00024721		 0.00017642		-0.00015441
Si		0.55499998		9.34379473		4.16329908		 0.00024721		-0.00017642		 0.00015441
Si		9.80499786		9.34379473		3.74170074		 0.00024721		-0.00017642		-0.00015441
Si		8.69499974		6.76619720		1.52829976		-0.00024721		 0.00017642		 0.00015441
Si		4.06999988		14.82119132		0.21080009		-0.00025420		-0.00011601		 0.00013257
Si		14.42999773		1.28879876		5.05920040		 0.00025420		 0.00011601		-0.00013257
Si		5.17999985		1.28879876		2.84579942		 0.00025420		 0.00011601		 0.00013257
Si		13.32000146		14.82119132		2.42419923		-0.00025420		-0.00011601		-0.00013257
Si		14.42999773		6.76619720		5.05920040		 0.00025420		-0.00011601		-0.00013257
Si		4.06999988		9.34379473		0.21080009		-0.00025420		 0.00011601		 0.00013257
Si		13.32000146		9.34379473		2.42419923		-0.00025420		 0.00011601		-0.00013257
Si		5.17999985		6.76619720		2.84579942		 0.00025420		-0.00011601		 0.00013257
Si		4.06999988		13.21019286		2.84579942		-0.00019387		-0.00012072		-0.00017171
Si		14.42999773		2.89979906		2.42419923		 0.00019387		 0.00012072		 0.00017171
Si		5.17999985		2.89979906		0.21080009		 0.00019387		 0.00012072		-0.00017171
Si		13.32000146		13.21019286		5.05920040		-0.00019387		-0.00012072		 0.00017171
Si		14.42999773		5.15519690		2.42419923		 0.00019387		-0.00012072		 0.00017171
Si		4.06999988		10.95479318		2.84579942		-0.00019387		 0.00012072		-0.00017171
Si		13.32000146		10.95479318		5.05920040		-0.00019387		 0.00012072		 0.00017171
Si		5.17999985		5.15519690		0.21080009		 0.00019387		-0.00012072		-0.00017171
O		1.10999997		1.12769892		1.05400047		-0.00024915		-0.00025939		 0.00007696
O		17.38999949		14.98229116		4.21600003		 0.00024915		 0.00025939		-0.00007696
O		8.13999976		14.98229116		3.68899979		 0.00024915		 0.00025939		 0.00007696
O		10.35999970		1.12769892		1.58100070		-0.00024915		-0.00025939		-0.00007696
O		17.38999949		9.18269488		4.21600003		 0.00024915		-0.00025939		-0.00007696
O		1.10999997		6.92729520		1.05400047		-0.00024915		 0.00025939		 0.00007696
O		10.35999970		6.92729520		1.58100070		-0.00024915		 0.00025939		-0.00007696
O		8.13999976		9.18269488		3.68899979		 0.00024915		-0.00025939		 0.00007696
O		1.10999997		2.89979906		3.68899979		-0.00007506		-0.00018401		 0.00032599
O		17.38999949		13.21019286		1.58100070		 0.00007506		 0.00018401		-0.00032599
O		8.13999976		13.21019286		1.05400047		 0.00007506		 0.00018401		 0.00032599
O		10.35999970		2.89979906		4.21600003		-0.00007506		-0.00018401		-0.00032599
O		17.38999949		10.95479318		1.58100070		 0.00007506		-0.00018401		-0.00032599
O		1.10999997		5.15519690		3.68899979		-0.00007506		 0.00018401		 0.00032599
O		10.35999970		5.15519690		4.21600003		-0.00007506		 0.00018401		-0.00032599
O		8.13999976		10.95479318		1.05400047		 0.00007506		-0.00018401		 0.00032599
O		1.10999997		12.08249210		1.05400047		-0.00013524		-0.00000000		-0.00060217
O		17.38999949		4.02749798		4.21600003		 0.00013524		0.00000000		 0.00060217
O		8.13999976		4.02749798		3.68899979		 0.00013524		0.00000000		-0.00060217
O		10.35999970		12.08249210		1.58100070		-0.00013524		-0.00000000		 0.00060217
O		1.10999997		4.02749798		1.05400047		-0.00057229		0.00000000		-0.00072994
O		17.38999949		12.08249210		4.21600003		 0.00057229		0.00000000		 0.00072994
O		8.13999976		12.08249210		3.68899979		 0.00057229		-0.00000000		-0.00072994
O		10.35999970		4.02749798		1.58100070		-0.00057229		-0.00000000		 0.00072994
O		1.10999997		0.00000000		3.68899979		-0.00088996		 0.00033082		 0.00010811
O		17.38999949		0.00000000		1.58100070		 0.00088996		-0.00033082		-0.00010811
O		8.13999976		0.00000000		1.05400047		 0.00088996		-0.00033082		 0.00010811
O		10.35999970		0.00000000		4.21600003		-0.00088996		 0.00033082		-0.00010811
O		17.38999949		8.05499596		1.58100070		 0.00088996		 0.00033082		-0.00010811
O		1.10999997		8.05499596		3.68899979		-0.00088996		-0.00033082		 0.00010811
O		10.35999970		8.05499596		4.21600003		-0.00088996		-0.00033082		-0.00010811
O		8.13999976		8.05499596		1.05400047		 0.00088996		 0.00033082		 0.00010811
O		0.92499997		14.01569209		0.26349919		 0.00028848		-0.00003961		 0.00031507
O		17.57499948		2.09429984		5.00649945		-0.00028848		 0.00003961		-0.00031507
O		8.32499976		2.09429984		2.89850036		-0.00028848		 0.00003961		 0.00031507
O		10.17499970		14.01569209		2.37150013		 0.00028848		-0.00003961		-0.00031507
O		17.57499948		5.96069613		5.00649945		-0.00028848		-0.00003961		-0.00031507
O		0.92499997		10.14929395		0.26349919		 0.00028848		 0.00003961		 0.00031507
O		10.17499970		10.14929395		2.37150013		 0.00028848		 0.00003961		-0.00031507
O		8.32499976		5.96069613		2.89850036		-0.00028848		-0.00003961		 0.00031507
O		0.92499997		14.01569209		2.84579942		 0.00027117		-0.00043443		 0.00037700
O		17.57499948		2.09429984		2.42419923		-0.00027117		 0.00043443		-0.00037700
O		8.32499976		2.09429984		0.21080009		-0.00027117		 0.00043443		 0.00037700
O		10.17499970		14.01569209		5.05920040		 0.00027117		-0.00043443		-0.00037700
O		17.57499948		5.96069613		2.42419923		-0.00027117		-0.00043443		-0.00037700
O		0.92499997		10.14929395		2.84579942		 0.00027117		 0.00043443		 0.00037700
O		10.17499970		10.14929395		5.05920040		 0.00027117		 0.00043443		-0.00037700
O		8.32499976		5.96069613		0.21080009		-0.00027117		-0.00043443		 0.00037700
O		3.51499990		2.89979906		0.26349919		 0.00021377		-0.00010093		 0.00000302
O		14.98499956		13.21019286		5.00649945		-0.00021377		 0.00010093		-0.00000302
O		5.73499983		13.21019286		2.89850036		-0.00021377		 0.00010093		 0.00000302
O		12.76499963		2.89979906		2.37150013		 0.00021377		-0.00010093		-0.00000302
O		14.98499956		10.95479318		5.00649945		-0.00021377		-0.00010093		-0.00000302
O		3.51499990		5.15519690		0.26349919		 0.00021377		 0.00010093		 0.00000302
O		12.76499963		5.15519690		2.37150013		 0.00021377		 0.00010093		-0.00000302
O		5.73499983		10.95479318		2.89850036		-0.00021377		-0.00010093		 0.00000302
O		3.51499990		1.12769892		2.95119946		 0.00022416		 0.00005665		 0.00012039
O		14.98499956		14.98229116		2.31879918		-0.00022416		-0.00005665		-0.00012039
O		5.73499983		14.98229116		0.31620014		-0.00022416		-0.00005665		 0.00012039
O		12.76499963		1.12769892		4.95380035		 0.00022416		 0.00005665		-0.00012039
O		14.98499956		9.18269488		2.31879918		-0.00022416		 0.00005665		-0.00012039
O		3.51499990		6.92729520		2.95119946		 0.00022416		-0.00005665		 0.00012039
O		12.76499963		6.92729520		4.95380035		 0.00022416		-0.00005665		-0.00012039
O		5.73499983		9.18269488		0.31620014		-0.00022416		 0.00005665		 0.00012039
O		3.51499990		0.00000000		0.26349919		-0.00003197		-0.00034495		 0.00010559
O		14.98499956		0.00000000		5.00649945		 0.00003197		 0.00034495		-0.00010559
O		5.73499983		0.00000000		2.89850036		 0.00003197		 0.00034495		 0.00010559
O		12.76499963		0.00000000		2.37150013		-0.00003197		-0.00034495		-0.00010559
O		14.98499956		8.05499596		5.00649945		 0.00003197		-0.00034495		-0.00010559
O		3.51499990		8.05499596		0.26349919		-0.00003197		 0.00034495		 0.00010559
O		12.76499963		8.05499596		2.37150013		-0.00003197		 0.00034495		-0.00010559
O		5.73499983		8.05499596		2.89850036		 0.00003197		-0.00034495		 0.00010559
O		3.51499990		12.08249210		2.37150013		 0.00018614		-0.00000000		-0.00024416
O		14.98499956		4.02749798		2.89850036		-0.00018614		0.00000000		 0.00024416
O		5.73499983		4.02749798		5.00649945		-0.00018614		0.00000000		-0.00024416
O		12.76499963		12.08249210		0.26349919		 0.00018614		-0.00000000		 0.00024416
O		3.51499990		4.02749798		2.89850036		 0.00026603		-0.00000000		 0.00049513
O		14.98499956		12.08249210		2.37150013		-0.00026603		0.00000000		-0.00049513
O		5.73499983		12.08249210		0.26349919		-0.00026603		0.00000000		 0.00049513
O		12.76499963		4.02749798		5.00649945		 0.00026603		0.00000000		-0.00049513
O		3.69999989		14.01569209		1.58100070		-0.00018485		-0.00007331		 0.00010870
O		14.79999957		2.09429984		3.68899979		 0.00018485		 0.00007331		-0.00010870
O		5.54999984		2.09429984		4.21600003		 0.00018485		 0.00007331		 0.00010870
O		12.94999962		14.01569209		1.05400047		-0.00018485		-0.00007331		-0.00010870
O		14.79999957		5.96069613		3.68899979		 0.00018485		-0.00007331		-0.00010870
O		3.69999989		10.14929395		1.58100070		-0.00018485		 0.00007331		 0.00010870
O		12.94999962		10.14929395		1.05400047		-0.00018485		 0.00007331		-0.00010870
O		5.54999984		5.96069613		4.21600003		 0.00018485		-0.00007331		 0.00010870
O		3.69999989		14.01569209		4.21600003		 0.00008447		 0.00001695		-0.00012337
O		14.79999957		2.09429984		1.05400047		-0.00008447		-0.00001695		 0.00012337
O		5.54999984		2.09429984		1.58100070		-0.00008447		-0.00001695		-0.00012337
O		12.94999962		14.01569209		3.68899979		 0.00008447		 0.00001695		 0.00012337
O		14.79999957		5.96069613		1.05400047		-0.00008447		 0.00001695		 0.00012337
O		3.69999989		10.14929395		4.21600003		 0.00008447		-0.00001695		-0.00012337
O		12.94999962		10.14929395		3.68899979		 0.00008447		-0.00001695		 0.00012337
O		5.54999984		5.96069613		1.58100070		-0.00008447		 0.00001695		-0.00012337
H		17.94500132		0.00000000		0.79049943		-0.00024028		 0.00017987		-0.00027519
H		0.55499813		0.00000000		4.47949922		 0.00024028		-0.00017987		 0.00027519
H		9.80499786		0.00000000		3.42550060		 0.00024028		-0.00017987		-0.00027519
H		8.69500159		0.00000000		1.84449990		-0.00024028		 0.00017987		 0.00027519
H		0.55499813		8.05499596		4.47949922		 0.00024028		 0.00017987		 0.00027519
H		17.94500132		8.05499596		0.79049943		-0.00024028		-0.00017987		-0.00027519
H		8.69500159		8.05499596		1.84449990		-0.00024028		-0.00017987		 0.00027519
H		9.80499786		8.05499596		3.42550060		 0.00024028		 0.00017987		-0.00027519
