# total energy = -92492.9503992 eV

CRYSTAL
PRIMVEC
		18.49999946		0.00000000		0.00000000
		0.00000000		17.00499600		0.00000000
		0.00000000		0.00000000		5.27000235
PRIMECORD
   164 1
Mg		2.40499993		2.89084877		2.00259904		-0.00008004		-0.00001656		-0.00057479
Mg		16.09499953		14.11414169		3.26739960		 0.00008004		 0.00001656		 0.00057479
Mg		6.84499980		14.11414169		4.63760021		 0.00008004		 0.00001656		-0.00057479
Mg		11.65499966		2.89084877		0.63240028		-0.00008004		-0.00001656		 0.00057479
Mg		16.09499953		11.39334307		3.26739960		 0.00008004		-0.00001656		 0.00057479
Mg		2.40499993		5.61164739		2.00259904		-0.00008004		 0.00001656		-0.00057479
Mg		11.65499966		5.61164739		0.63240028		-0.00008004		 0.00001656		 0.00057479
Mg		6.84499980		11.39334307		4.63760021		 0.00008004		-0.00001656		-0.00057479
Mg		2.40499993		1.36039931		4.58489927		 0.00021836		 0.00016765		-0.00003224
Mg		16.09499953		15.64459114		0.68509938		-0.00021836		-0.00016765		 0.00003224
Mg		6.84499980		15.64459114		1.94989994		-0.00021836		-0.00016765		-0.00003224
Mg		11.65499966		1.36039931		3.32010055		 0.00021836		 0.00016765		 0.00003224
Mg		16.09499953		9.86289361		0.68509938		-0.00021836		 0.00016765		 0.00003224
Mg		2.40499993		7.14209499		4.58489927		 0.00021836		-0.00016765		-0.00003224
Mg		11.65499966		7.14209499		3.32010055		 0.00021836		-0.00016765		 0.00003224
Mg		6.84499980		9.86289361		1.94989994		-0.00021836		 0.00016765		-0.00003224
Mg		2.40499993		16.66489016		2.00259904		 0.00045006		-0.00024341		-0.00000341
Mg		16.09499953		0.34010029		3.26739960		-0.00045006		 0.00024341		 0.00000341
Mg		6.84499980		0.34010029		4.63760021		-0.00045006		 0.00024341		-0.00000341
Mg		11.65499966		16.66489016		0.63240028		 0.00045006		-0.00024341		 0.00000341
Mg		16.09499953		8.16239401		3.26739960		-0.00045006		-0.00024341		 0.00000341
Mg		2.40499993		8.84259459		2.00259904		 0.00045006		 0.00024341		-0.00000341
Mg		11.65499966		8.84259459		0.63240028		 0.00045006		 0.00024341		 0.00000341
Mg		6.84499980		8.16239401		4.63760021		-0.00045006		-0.00024341		-0.00000341
Mg		2.40499993		4.25124808		4.58489927		-0.00003357		-0.00000000		 0.00017368
Mg		16.09499953		12.75374238		0.68509938		 0.00003357		-0.00000000		-0.00017368
Mg		6.84499980		12.75374238		1.94989994		 0.00003357		0.00000000		 0.00017368
Mg		11.65499966		4.25124808		3.32010055		-0.00003357		0.00000000		-0.00017368
Si		0.55499998		13.94409154		1.52829976		-0.00019018		-0.00006589		 0.00014852
Si		17.94500132		3.06089706		3.74170074		 0.00019018		 0.00006589		-0.00014852
Si		8.69499974		3.06089706		4.16329908		 0.00019018		 0.00006589		 0.00014852
Si		9.80499786		13.94409154		1.10669957		-0.00019018		-0.00006589		-0.00014852
Si		17.94500132		5.44159724		3.74170074		 0.00019018		-0.00006589		-0.00014852
Si		0.55499998		11.56339321		1.52829976		-0.00019018		 0.00006589		 0.00014852
Si		9.80499786		11.56339321		1.10669957		-0.00019018		 0.00006589		-0.00014852
Si		8.69499974		5.44159724		4.16329908		 0.00019018		-0.00006589		 0.00014852
Si		0.55499998		15.64459114		4.16329908		 0.00025126		-0.00010537		 0.00039811
Si		17.94500132		1.36039931		1.10669957		-0.00025126		 0.00010537		-0.00039811
Si		8.69499974		1.36039931		1.52829976		-0.00025126		 0.00010537		 0.00039811
Si		9.80499786		15.64459114		3.74170074		 0.00025126		-0.00010537		-0.00039811
Si		17.94500132		7.14209499		1.10669957		-0.00025126		-0.00010537		-0.00039811
Si		0.55499998		9.86289361		4.16329908		 0.00025126		 0.00010537		 0.00039811
Si		9.80499786		9.86289361		3.74170074		 0.00025126		 0.00010537		-0.00039811
Si		8.69499974		7.14209499		1.52829976		-0.00025126		-0.00010537		 0.00039811
Si		4.06999988		15.64459114		0.21080009		-0.00019385		 0.00043185		 0.00001605
Si		14.42999773		1.36039931		5.05920040		 0.00019385		-0.00043185		-0.00001605
Si		5.17999985		1.36039931		2.84579942		 0.00019385		-0.00043185		 0.00001605
Si		13.32000146		15.64459114		2.42419923		-0.00019385		 0.00043185		-0.00001605
Si		14.42999773		7.14209499		5.05920040		 0.00019385		 0.00043185		-0.00001605
Si		4.06999988		9.86289361		0.21080009		-0.00019385		-0.00043185		 0.00001605
Si		13.32000146		9.86289361		2.42419923		-0.00019385		-0.00043185		-0.00001605
Si		5.17999985		7.14209499		2.84579942		 0.00019385		 0.00043185		 0.00001605
Si		4.06999988		13.94409154		2.84579942		-0.00007653		 0.00005916		 0.00024294
Si		14.42999773		3.06089706		2.42419923		 0.00007653		-0.00005916		-0.00024294
Si		5.17999985		3.06089706		0.21080009		 0.00007653		-0.00005916		 0.00024294
Si		13.32000146		13.94409154		5.05920040		-0.00007653		 0.00005916		-0.00024294
Si		14.42999773		5.44159724		2.42419923		 0.00007653		 0.00005916		-0.00024294
Si		4.06999988		11.56339321		2.84579942		-0.00007653		-0.00005916		 0.00024294
Si		13.32000146		11.56339321		5.05920040		-0.00007653		-0.00005916		-0.00024294
Si		5.17999985		5.44159724		0.21080009		 0.00007653		 0.00005916		 0.00024294
O		1.10999997		1.19034917		1.05400047		-0.00049126		-0.00011336		 0.00005578
O		17.38999949		15.81464129		4.21600003		 0.00049126		 0.00011336		-0.00005578
O		8.13999976		15.81464129		3.68899979		 0.00049126		 0.00011336		 0.00005578
O		10.35999970		1.19034917		1.58100070		-0.00049126		-0.00011336		-0.00005578
O		17.38999949		9.69284532		4.21600003		 0.00049126		-0.00011336		-0.00005578
O		1.10999997		7.31214514		1.05400047		-0.00049126		 0.00011336		 0.00005578
O		10.35999970		7.31214514		1.58100070		-0.00049126		 0.00011336		-0.00005578
O		8.13999976		9.69284532		3.68899979		 0.00049126		-0.00011336		 0.00005578
O		1.10999997		3.06089706		3.68899979		 0.00012141		-0.00065051		-0.00023402
O		17.38999949		13.94409154		1.58100070		-0.00012141		 0.00065051		 0.00023402
O		8.13999976		13.94409154		1.05400047		-0.00012141		 0.00065051		-0.00023402
O		10.35999970		3.06089706		4.21600003		 0.00012141		-0.00065051		 0.00023402
O		17.38999949		11.56339321		1.58100070		-0.00012141		-0.00065051		 0.00023402
O		1.10999997		5.44159724		3.68899979		 0.00012141		 0.00065051		-0.00023402
O		10.35999970		5.44159724		4.21600003		 0.00012141		 0.00065051		 0.00023402
O		8.13999976		11.56339321		1.05400047		-0.00012141		-0.00065051		-0.00023402
O		1.10999997		12.75374238		1.05400047		 0.00000783		0.00000000		 0.00027325
O		17.38999949		4.25124808		4.21600003		-0.00000783		0.00000000		-0.00027325
O		8.13999976		4.25124808		3.68899979		-0.00000783		0.00000000		 0.00027325
O		10.35999970		12.75374238		1.58100070		 0.00000783		0.00000000		-0.00027325
O		1.10999997		4.25124808		1.05400047		 0.00026409		0.00000000		-0.00014236
O		17.38999949		12.75374238		4.21600003		-0.00026409		0.00000000		 0.00014236
O		8.13999976		12.75374238		3.68899979		-0.00026409		-0.00000000		-0.00014236
O		10.35999970		4.25124808		1.58100070		 0.00026409		-0.00000000		 0.00014236
O		1.10999997		0.00000000		3.68899979		-0.00049363		 0.00034400		 0.00028547
O		17.38999949		0.00000000		1.58100070		 0.00049363		-0.00034400		-0.00028547
O		8.13999976		0.00000000		1.05400047		 0.00049363		-0.00034400		 0.00028547
O		10.35999970		0.00000000		4.21600003		-0.00049363		 0.00034400		-0.00028547
O		17.38999949		8.50249430		1.58100070		 0.00049363		 0.00034400		-0.00028547
O		1.10999997		8.50249430		3.68899979		-0.00049363		-0.00034400		 0.00028547
O		10.35999970		8.50249430		4.21600003		-0.00049363		-0.00034400		-0.00028547
O		8.13999976		8.50249430		1.05400047		 0.00049363		 0.00034400		 0.00028547
O		0.92499997		14.79434227		0.26349919		-0.00024501		 0.00033725		 0.00036818
O		17.57499948		2.21064819		5.00649945		 0.00024501		-0.00033725		-0.00036818
O		8.32499976		2.21064819		2.89850036		 0.00024501		-0.00033725		 0.00036818
O		10.17499970		14.79434227		2.37150013		-0.00024501		 0.00033725		-0.00036818
O		17.57499948		6.29184612		5.00649945		 0.00024501		 0.00033725		-0.00036818
O		0.92499997		10.71314434		0.26349919		-0.00024501		-0.00033725		 0.00036818
O		10.17499970		10.71314434		2.37150013		-0.00024501		-0.00033725		-0.00036818
O		8.32499976		6.29184612		2.89850036		 0.00024501		 0.00033725		 0.00036818
O		0.92499997		14.79434227		2.84579942		-0.00003784		-0.00016990		-0.00035741
O		17.57499948		2.21064819		2.42419923		 0.00003784		 0.00016990		 0.00035741
O		8.32499976		2.21064819		0.21080009		 0.00003784		 0.00016990		-0.00035741
O		10.17499970		14.79434227		5.05920040		-0.00003784		-0.00016990		 0.00035741
O		17.57499948		6.29184612		2.42419923		 0.00003784		-0.00016990		 0.00035741
O		0.92499997		10.71314434		2.84579942		-0.00003784		 0.00016990		-0.00035741
O		10.17499970		10.71314434		5.05920040		-0.00003784		 0.00016990		 0.00035741
O		8.32499976		6.29184612		0.21080009		 0.00003784		-0.00016990		-0.00035741
O		3.51499990		3.06089706		0.26349919		 0.00033812		-0.00000891		-0.00024367
O		14.98499956		13.94409154		5.00649945		-0.00033812		 0.00000891		 0.00024367
O		5.73499983		13.94409154		2.89850036		-0.00033812		 0.00000891		-0.00024367
O		12.76499963		3.06089706		2.37150013		 0.00033812		-0.00000891		 0.00024367
O		14.98499956		11.56339321		5.00649945		-0.00033812		-0.00000891		 0.00024367
O		3.51499990		5.44159724		0.26349919		 0.00033812		 0.00000891		-0.00024367
O		12.76499963		5.44159724		2.37150013		 0.00033812		 0.00000891		 0.00024367
O		5.73499983		11.56339321		2.89850036		-0.00033812		-0.00000891		-0.00024367
O		3.51499990		1.19034917		2.95119946		 0.00021783		-0.00029516		-0.00016760
O		14.98499956		15.81464129		2.31879918		-0.00021783		 0.00029516		 0.00016760
O		5.73499983		15.81464129		0.31620014		-0.00021783		 0.00029516		-0.00016760
O		12.76499963		1.19034917		4.95380035		 0.00021783		-0.00029516		 0.00016760
O		14.98499956		9.69284532		2.31879918		-0.00021783		-0.00029516		 0.00016760
O		3.51499990		7.31214514		2.95119946		 0.00021783		 0.00029516		-0.00016760
O		12.76499963		7.31214514		4.95380035		 0.00021783		 0.00029516		 0.00016760
O		5.73499983		9.69284532		0.31620014		-0.00021783		-0.00029516		-0.00016760
O		3.51499990		0.00000000		0.26349919		-0.00027181		-0.00014032		-0.00050095
O		14.98499956		0.00000000		5.00649945		 0.00027181		 0.00014032		 0.00050095
O		5.73499983		0.00000000		2.89850036		 0.00027181		 0.00014032		-0.00050095
O		12.76499963		0.00000000		2.37150013		-0.00027181		-0.00014032		 0.00050095
O		14.98499956		8.50249430		5.00649945		 0.00027181		-0.00014032		 0.00050095
O		3.51499990		8.50249430		0.26349919		-0.00027181		 0.00014032		-0.00050095
O		12.76499963		8.50249430		2.37150013		-0.00027181		 0.00014032		 0.00050095
O		5.73499983		8.50249430		2.89850036		 0.00027181		-0.00014032		-0.00050095
O		3.51499990		12.75374238		2.37150013		 0.00044341		0.00000000		-0.00039611
O		14.98499956		4.25124808		2.89850036		-0.00044341		-0.00000000		 0.00039611
O		5.73499983		4.25124808		5.00649945		-0.00044341		0.00000000		-0.00039611
O		12.76499963		12.75374238		0.26349919		 0.00044341		0.00000000		 0.00039611
O		3.51499990		4.25124808		2.89850036		 0.00041235		0.00000000		-0.00014232
O		14.98499956		12.75374238		2.37150013		-0.00041235		0.00000000		 0.00014232
O		5.73499983		12.75374238		0.26349919		-0.00041235		-0.00000000		-0.00014232
O		12.76499963		4.25124808		5.00649945		 0.00041235		-0.00000000		 0.00014232
O		3.69999989		14.79434227		1.58100070		 0.00045773		 0.00034230		 0.00005590
O		14.79999957		2.21064819		3.68899979		-0.00045773		-0.00034230		-0.00005590
O		5.54999984		2.21064819		4.21600003		-0.00045773		-0.00034230		 0.00005590
O		12.94999962		14.79434227		1.05400047		 0.00045773		 0.00034230		-0.00005590
O		14.79999957		6.29184612		3.68899979		-0.00045773		 0.00034230		-0.00005590
O		3.69999989		10.71314434		1.58100070		 0.00045773		-0.00034230		 0.00005590
O		12.94999962		10.71314434		1.05400047		 0.00045773		-0.00034230		-0.00005590
O		5.54999984		6.29184612		4.21600003		-0.00045773		 0.00034230		 0.00005590
O		3.69999989		14.79434227		4.21600003		 0.00003266		-0.00025816		 0.00004138
O		14.79999957		2.21064819		1.05400047		-0.00003266		 0.00025816		-0.00004138
O		5.54999984		2.21064819		1.58100070		-0.00003266		 0.00025816		 0.00004138
O		12.94999962		14.79434227		3.68899979		 0.00003266		-0.00025816		-0.00004138
O		14.79999957		6.29184612		1.05400047		-0.00003266		-0.00025816		-0.00004138
O		3.69999989		10.71314434		4.21600003		 0.00003266		 0.00025816		 0.00004138
O		12.94999962		10.71314434		3.68899979		 0.00003266		 0.00025816		-0.00004138
O		5.54999984		6.29184612		1.58100070		-0.00003266		-0.00025816		 0.00004138
H		17.94500132		0.00000000		0.79049943		 0.00006144		 0.00052152		 0.00017128
H		0.55499813		0.00000000		4.47949922		-0.00006144		-0.00052152		-0.00017128
H		9.80499786		0.00000000		3.42550060		-0.00006144		-0.00052152		 0.00017128
H		8.69500159		0.00000000		1.84449990		 0.00006144		 0.00052152		-0.00017128
H		0.55499813		8.50249430		4.47949922		-0.00006144		 0.00052152		-0.00017128
H		17.94500132		8.50249430		0.79049943		 0.00006144		-0.00052152		 0.00017128
H		8.69500159		8.50249430		1.84449990		 0.00006144		-0.00052152		-0.00017128
H		9.80499786		8.50249430		3.42550060		-0.00006144		 0.00052152		 0.00017128
