# total energy = -92497.8485656 eV

CRYSTAL
PRIMVEC
		18.49999946		0.00000000		0.00000000
		0.00000000		18.34748546		0.00000000
		0.00000000		0.00000000		5.27000235
PRIMECORD
   164 1
Mg		2.40499993		3.11907216		2.00259904		 0.00013993		 0.00008777		-0.00011863
Mg		16.09499953		15.22841515		3.26739960		-0.00013993		-0.00008777		 0.00011863
Mg		6.84499980		15.22841515		4.63760021		-0.00013993		-0.00008777		-0.00011863
Mg		11.65499966		3.11907216		0.63240028		 0.00013993		 0.00008777		 0.00011863
Mg		16.09499953		12.29281674		3.26739960		-0.00013993		 0.00008777		 0.00011863
Mg		2.40499993		6.05467057		2.00259904		 0.00013993		-0.00008777		-0.00011863
Mg		11.65499966		6.05467057		0.63240028		 0.00013993		-0.00008777		 0.00011863
Mg		6.84499980		12.29281674		4.63760021		-0.00013993		 0.00008777		-0.00011863
Mg		2.40499993		1.46779921		4.58489927		-0.00009059		 0.00014800		-0.00015202
Mg		16.09499953		16.87968995		0.68509938		 0.00009059		-0.00014800		 0.00015202
Mg		6.84499980		16.87968995		1.94989994		 0.00009059		-0.00014800		-0.00015202
Mg		11.65499966		1.46779921		3.32010055		-0.00009059		 0.00014800		 0.00015202
Mg		16.09499953		10.64154379		0.68509938		 0.00009059		 0.00014800		 0.00015202
Mg		2.40499993		7.70594537		4.58489927		-0.00009059		-0.00014800		-0.00015202
Mg		11.65499966		7.70594537		3.32010055		-0.00009059		-0.00014800		 0.00015202
Mg		6.84499980		10.64154379		1.94989994		 0.00009059		 0.00014800		-0.00015202
Mg		2.40499993		17.98053982		2.00259904		 0.00014146		 0.00013251		 0.00015272
Mg		16.09499953		0.36694934		3.26739960		-0.00014146		-0.00013251		-0.00015272
Mg		6.84499980		0.36694934		4.63760021		-0.00014146		-0.00013251		 0.00015272
Mg		11.65499966		17.98053982		0.63240028		 0.00014146		 0.00013251		-0.00015272
Mg		16.09499953		8.80679524		3.26739960		-0.00014146		 0.00013251		-0.00015272
Mg		2.40499993		9.54069392		2.00259904		 0.00014146		-0.00013251		 0.00015272
Mg		11.65499966		9.54069392		0.63240028		 0.00014146		-0.00013251		-0.00015272
Mg		6.84499980		8.80679524		4.63760021		-0.00014146		 0.00013251		 0.00015272
Mg		2.40499993		4.58687137		4.58489927		 0.00023990		0.00000000		 0.00002332
Mg		16.09499953		13.76061595		0.68509938		-0.00023990		0.00000000		-0.00002332
Mg		6.84499980		13.76061595		1.94989994		-0.00023990		0.00000000		 0.00002332
Mg		11.65499966		4.58687137		3.32010055		 0.00023990		0.00000000		-0.00002332
Si		0.55499998		15.04494141		1.52829976		 0.00024655		-0.00017511		-0.00002501
Si		17.94500132		3.30254775		3.74170074		-0.00024655		 0.00017511		 0.00002501
Si		8.69499974		3.30254775		4.16329908		-0.00024655		 0.00017511		-0.00002501
Si		9.80499786		15.04494141		1.10669957		 0.00024655		-0.00017511		 0.00002501
Si		17.94500132		5.87119683		3.74170074		-0.00024655		-0.00017511		 0.00002501
Si		0.55499998		12.47629233		1.52829976		 0.00024655		 0.00017511		-0.00002501
Si		9.80499786		12.47629233		1.10669957		 0.00024655		 0.00017511		 0.00002501
Si		8.69499974		5.87119683		4.16329908		-0.00024655		-0.00017511		-0.00002501
Si		0.55499998		16.87968995		4.16329908		-0.00036891		-0.00043890		 0.00019052
Si		17.94500132		1.46779921		1.10669957		 0.00036891		 0.00043890		-0.00019052
Si		8.69499974		1.46779921		1.52829976		 0.00036891		 0.00043890		 0.00019052
Si		9.80499786		16.87968995		3.74170074		-0.00036891		-0.00043890		-0.00019052
Si		17.94500132		7.70594537		1.10669957		 0.00036891		-0.00043890		-0.00019052
Si		0.55499998		10.64154379		4.16329908		-0.00036891		 0.00043890		 0.00019052
Si		9.80499786		10.64154379		3.74170074		-0.00036891		 0.00043890		-0.00019052
Si		8.69499974		7.70594537		1.52829976		 0.00036891		-0.00043890		 0.00019052
Si		4.06999988		16.87968995		0.21080009		-0.00016347		 0.00006066		 0.00021371
Si		14.42999773		1.46779921		5.05920040		 0.00016347		-0.00006066		-0.00021371
Si		5.17999985		1.46779921		2.84579942		 0.00016347		-0.00006066		 0.00021371
Si		13.32000146		16.87968995		2.42419923		-0.00016347		 0.00006066		-0.00021371
Si		14.42999773		7.70594537		5.05920040		 0.00016347		 0.00006066		-0.00021371
Si		4.06999988		10.64154379		0.21080009		-0.00016347		-0.00006066		 0.00021371
Si		13.32000146		10.64154379		2.42419923		-0.00016347		-0.00006066		-0.00021371
Si		5.17999985		7.70594537		2.84579942		 0.00016347		 0.00006066		 0.00021371
Si		4.06999988		15.04494141		2.84579942		 0.00000237		-0.00007433		 0.00024767
Si		14.42999773		3.30254775		2.42419923		-0.00000237		 0.00007433		-0.00024767
Si		5.17999985		3.30254775		0.21080009		-0.00000237		 0.00007433		 0.00024767
Si		13.32000146		15.04494141		5.05920040		 0.00000237		-0.00007433		-0.00024767
Si		14.42999773		5.87119683		2.42419923		-0.00000237		-0.00007433		-0.00024767
Si		4.06999988		12.47629233		2.84579942		 0.00000237		 0.00007433		 0.00024767
Si		13.32000146		12.47629233		5.05920040		 0.00000237		 0.00007433		-0.00024767
Si		5.17999985		5.87119683		0.21080009		-0.00000237		-0.00007433		 0.00024767
O		1.10999997		1.28432361		1.05400047		 0.00003583		-0.00015461		 0.00018806
O		17.38999949		17.06316555		4.21600003		-0.00003583		 0.00015461		-0.00018806
O		8.13999976		17.06316555		3.68899979		-0.00003583		 0.00015461		 0.00018806
O		10.35999970		1.28432361		1.58100070		 0.00003583		-0.00015461		-0.00018806
O		17.38999949		10.45806819		4.21600003		-0.00003583		-0.00015461		-0.00018806
O		1.10999997		7.88942097		1.05400047		 0.00003583		 0.00015461		 0.00018806
O		10.35999970		7.88942097		1.58100070		 0.00003583		 0.00015461		-0.00018806
O		8.13999976		10.45806819		3.68899979		-0.00003583		-0.00015461		 0.00018806
O		1.10999997		3.30254775		3.68899979		-0.00028511		 0.00038838		 0.00032562
O		17.38999949		15.04494141		1.58100070		 0.00028511		-0.00038838		-0.00032562
O		8.13999976		15.04494141		1.05400047		 0.00028511		-0.00038838		 0.00032562
O		10.35999970		3.30254775		4.21600003		-0.00028511		 0.00038838		-0.00032562
O		17.38999949		12.47629233		1.58100070		 0.00028511		 0.00038838		-0.00032562
O		1.10999997		5.87119683		3.68899979		-0.00028511		-0.00038838		 0.00032562
O		10.35999970		5.87119683		4.21600003		-0.00028511		-0.00038838		-0.00032562
O		8.13999976		12.47629233		1.05400047		 0.00028511		 0.00038838		 0.00032562
O		1.10999997		13.76061595		1.05400047		-0.00051516		0.00000000		 0.00032054
O		17.38999949		4.58687137		4.21600003		 0.00051516		0.00000000		-0.00032054
O		8.13999976		4.58687137		3.68899979		 0.00051516		0.00000000		 0.00032054
O		10.35999970		13.76061595		1.58100070		-0.00051516		0.00000000		-0.00032054
O		1.10999997		4.58687137		1.05400047		 0.00061571		0.00000000		-0.00048981
O		17.38999949		13.76061595		4.21600003		-0.00061571		0.00000000		 0.00048981
O		8.13999976		13.76061595		3.68899979		-0.00061571		0.00000000		-0.00048981
O		10.35999970		4.58687137		1.58100070		 0.00061571		0.00000000		 0.00048981
O		1.10999997		0.00000000		3.68899979		 0.00059389		-0.00052476		 0.00034309
O		17.38999949		0.00000000		1.58100070		-0.00059389		 0.00052476		-0.00034309
O		8.13999976		0.00000000		1.05400047		-0.00059389		 0.00052476		 0.00034309
O		10.35999970		0.00000000		4.21600003		 0.00059389		-0.00052476		-0.00034309
O		17.38999949		9.17374458		1.58100070		-0.00059389		-0.00052476		-0.00034309
O		1.10999997		9.17374458		3.68899979		 0.00059389		 0.00052476		 0.00034309
O		10.35999970		9.17374458		4.21600003		 0.00059389		 0.00052476		-0.00034309
O		8.13999976		9.17374458		1.05400047		-0.00059389		-0.00052476		 0.00034309
O		0.92499997		15.96231568		0.26349919		-0.00020270		-0.00000509		 0.00026623
O		17.57499948		2.38517348		5.00649945		 0.00020270		 0.00000509		-0.00026623
O		8.32499976		2.38517348		2.89850036		 0.00020270		 0.00000509		 0.00026623
O		10.17499970		15.96231568		2.37150013		-0.00020270		-0.00000509		-0.00026623
O		17.57499948		6.78857110		5.00649945		 0.00020270		-0.00000509		-0.00026623
O		0.92499997		11.55891806		0.26349919		-0.00020270		 0.00000509		 0.00026623
O		10.17499970		11.55891806		2.37150013		-0.00020270		 0.00000509		-0.00026623
O		8.32499976		6.78857110		2.89850036		 0.00020270		-0.00000509		 0.00026623
O		0.92499997		15.96231568		2.84579942		-0.00016364		 0.00026713		-0.00025549
O		17.57499948		2.38517348		2.42419923		 0.00016364		-0.00026713		 0.00025549
O		8.32499976		2.38517348		0.21080009		 0.00016364		-0.00026713		-0.00025549
O		10.17499970		15.96231568		5.05920040		-0.00016364		 0.00026713		 0.00025549
O		17.57499948		6.78857110		2.42419923		 0.00016364		 0.00026713		 0.00025549
O		0.92499997		11.55891806		2.84579942		-0.00016364		-0.00026713		-0.00025549
O		10.17499970		11.55891806		5.05920040		-0.00016364		-0.00026713		 0.00025549
O		8.32499976		6.78857110		0.21080009		 0.00016364		 0.00026713		-0.00025549
O		3.51499990		3.30254775		0.26349919		 0.00025727		 0.00040193		 0.00036125
O		14.98499956		15.04494141		5.00649945		-0.00025727		-0.00040193		-0.00036125
O		5.73499983		15.04494141		2.89850036		-0.00025727		-0.00040193		 0.00036125
O		12.76499963		3.30254775		2.37150013		 0.00025727		 0.00040193		-0.00036125
O		14.98499956		12.47629233		5.00649945		-0.00025727		 0.00040193		-0.00036125
O		3.51499990		5.87119683		0.26349919		 0.00025727		-0.00040193		 0.00036125
O		12.76499963		5.87119683		2.37150013		 0.00025727		-0.00040193		-0.00036125
O		5.73499983		12.47629233		2.89850036		-0.00025727		 0.00040193		 0.00036125
O		3.51499990		1.28432361		2.95119946		 0.00020264		 0.00011836		-0.00024794
O		14.98499956		17.06316555		2.31879918		-0.00020264		-0.00011836		 0.00024794
O		5.73499983		17.06316555		0.31620014		-0.00020264		-0.00011836		-0.00024794
O		12.76499963		1.28432361		4.95380035		 0.00020264		 0.00011836		 0.00024794
O		14.98499956		10.45806819		2.31879918		-0.00020264		 0.00011836		 0.00024794
O		3.51499990		7.88942097		2.95119946		 0.00020264		-0.00011836		-0.00024794
O		12.76499963		7.88942097		4.95380035		 0.00020264		-0.00011836		 0.00024794
O		5.73499983		10.45806819		0.31620014		-0.00020264		 0.00011836		-0.00024794
O		3.51499990		0.00000000		0.26349919		-0.00004873		-0.00005279		 0.00009340
O		14.98499956		0.00000000		5.00649945		 0.00004873		 0.00005279		-0.00009340
O		5.73499983		0.00000000		2.89850036		 0.00004873		 0.00005279		 0.00009340
O		12.76499963		0.00000000		2.37150013		-0.00004873		-0.00005279		-0.00009340
O		14.98499956		9.17374458		5.00649945		 0.00004873		-0.00005279		-0.00009340
O		3.51499990		9.17374458		0.26349919		-0.00004873		 0.00005279		 0.00009340
O		12.76499963		9.17374458		2.37150013		-0.00004873		 0.00005279		-0.00009340
O		5.73499983		9.17374458		2.89850036		 0.00004873		-0.00005279		 0.00009340
O		3.51499990		13.76061595		2.37150013		 0.00038714		0.00000000		 0.00018943
O		14.98499956		4.58687137		2.89850036		-0.00038714		0.00000000		-0.00018943
O		5.73499983		4.58687137		5.00649945		-0.00038714		0.00000000		 0.00018943
O		12.76499963		13.76061595		0.26349919		 0.00038714		0.00000000		-0.00018943
O		3.51499990		4.58687137		2.89850036		 0.00050476		0.00000000		-0.00040520
O		14.98499956		13.76061595		2.37150013		-0.00050476		0.00000000		 0.00040520
O		5.73499983		13.76061595		0.26349919		-0.00050476		0.00000000		-0.00040520
O		12.76499963		4.58687137		5.00649945		 0.00050476		0.00000000		 0.00040520
O		3.69999989		15.96231568		1.58100070		 0.00030681		 0.00020459		 0.00041308
O		14.79999957		2.38517348		3.68899979		-0.00030681		-0.00020459		-0.00041308
O		5.54999984		2.38517348		4.21600003		-0.00030681		-0.00020459		 0.00041308
O		12.94999962		15.96231568		1.05400047		 0.00030681		 0.00020459		-0.00041308
O		14.79999957		6.78857110		3.68899979		-0.00030681		 0.00020459		-0.00041308
O		3.69999989		11.55891806		1.58100070		 0.00030681		-0.00020459		 0.00041308
O		12.94999962		11.55891806		1.05400047		 0.00030681		-0.00020459		-0.00041308
O		5.54999984		6.78857110		4.21600003		-0.00030681		 0.00020459		 0.00041308
O		3.69999989		15.96231568		4.21600003		-0.00002522		 0.00030311		 0.00001394
O		14.79999957		2.38517348		1.05400047		 0.00002522		-0.00030311		-0.00001394
O		5.54999984		2.38517348		1.58100070		 0.00002522		-0.00030311		 0.00001394
O		12.94999962		15.96231568		3.68899979		-0.00002522		 0.00030311		-0.00001394
O		14.79999957		6.78857110		1.05400047		 0.00002522		 0.00030311		-0.00001394
O		3.69999989		11.55891806		4.21600003		-0.00002522		-0.00030311		 0.00001394
O		12.94999962		11.55891806		3.68899979		-0.00002522		-0.00030311		-0.00001394
O		5.54999984		6.78857110		1.58100070		 0.00002522		 0.00030311		 0.00001394
H		17.94500132		0.00000000		0.79049943		 0.00086673		-0.00056890		-0.00037820
H		0.55499813		0.00000000		4.47949922		-0.00086673		 0.00056890		 0.00037820
H		9.80499786		0.00000000		3.42550060		-0.00086673		 0.00056890		-0.00037820
H		8.69500159		0.00000000		1.84449990		 0.00086673		-0.00056890		 0.00037820
H		0.55499813		9.17374458		4.47949922		-0.00086673		-0.00056890		 0.00037820
H		17.94500132		9.17374458		0.79049943		 0.00086673		 0.00056890		-0.00037820
H		8.69500159		9.17374458		1.84449990		 0.00086673		 0.00056890		 0.00037820
H		9.80499786		9.17374458		3.42550060		-0.00086673		-0.00056890		-0.00037820
