# total energy = -18277.0619924 eV

CRYSTAL
PRIMVEC
		5.33600200		0.85376270		0.00000000
		-1.92862470		4.19423469		0.00000000
		0.00000000		0.00000000		14.61400229
PRIMECORD
   28 1
Mg		1.77155206		0.28344807		3.19754289		 0.00053458		 0.00037934		-0.00068126
Mg		-0.64030284		1.39248523		3.19754289		-0.00008401		-0.00092808		-0.00037157
Mg		2.27612808		3.37205815		3.19754289		-0.00073031		 0.00027161		-0.00116116
Mg		3.56444778		0.57031193		10.50454404		-0.00053458		-0.00037934		-0.00068126
Mg		-1.28832024		2.80174676		10.50454404		 0.00008401		 0.00092808		-0.00037157
Mg		1.13124922		1.67593276		10.50454404		 0.00073031		-0.00027161		-0.00116116
Si		0.49291879		3.08074096		0.42672896		 0.00174557		-0.00064922		-0.00003980
Si		2.91445905		1.96724994		7.73372902		-0.00174557		 0.00064922		-0.00003980
Si		0.49291879		3.08074096		7.73372902		-0.00003103		-0.00174373		-0.00039000
Si		2.91445905		1.96725102		0.42672896		 0.00003103		 0.00174373		-0.00039000
O		0.49291879		3.08074096		2.05472777		 0.00127539		-0.00003357		 0.00089435
O		2.91445905		1.96724994		9.36172784		-0.00127539		 0.00003357		 0.00089435
O		0.49291879		3.08074096		9.36172784		 0.00020108		 0.00088257		 0.00024474
O		2.91445905		1.96725102		2.05472777		-0.00020108		-0.00088257		 0.00024474
O		2.63598416		0.42175686		14.48247427		-0.00166139		 0.00093102		 0.00071067
O		-0.95273889		2.07194991		14.48247427		-0.00085507		 0.00038469		-0.00098857
O		1.72413311		2.55428414		14.48247427		-0.00026583		-0.00068667		-0.00058700
O		2.70001622		0.43200314		7.17547421		 0.00166139		-0.00093102		 0.00071067
O		-0.97588312		2.12228100		7.17547421		 0.00085507		-0.00038469		-0.00098857
O		1.68324527		2.49370785		7.17547421		 0.00026583		 0.00068667		-0.00058700
O		3.55733305		0.56917279		4.17814305		 0.00025943		 0.00060861		-0.00050823
O		-1.28574800		2.79615376		4.17814305		-0.00073087		 0.00092580		 0.00159342
O		1.13579279		1.68266381		4.17814305		-0.00043789		-0.00044862		 0.00182143
O		1.77866679		0.28458721		11.48514311		-0.00025943		-0.00060861		-0.00050823
O		-0.64287400		1.39807715		11.48514311		 0.00073087		-0.00092580		 0.00159342
O		2.27158504		3.36532817		11.48514311		 0.00043789		 0.00044862		 0.00182143
O		0.00000000		0.00000000		2.10441581		-0.00141597		-0.00068072		-0.00053702
O		0.00000000		0.00000000		9.41141587		 0.00141597		 0.00068072		-0.00053702
