# total energy = -20636.1430314 eV

CRYSTAL
PRIMVEC
		10.05000003		0.00000000		0.00000000
		0.00000000		5.74999697		-0.23000430
		0.00000000		-0.19479915		4.86999886
PRIMECORD
   28 1
Si		3.34665001		-0.17506698		4.37666949		 0.00013535		-0.00045761		-0.00013007
Si		6.70335002		-0.01973318		0.49333139		-0.00013535		 0.00045761		 0.00013007
Si		8.37165002		2.69993251		4.26166935		 0.00014789		-0.00045886		-0.00013384
Si		1.67835000		2.85526732		0.37833125		-0.00014789		 0.00045886		 0.00013384
Mg		0.00000000		0.00000000		0.00000000		0.00000000		0.00000000		0.00000000
Mg		5.02500001		2.87500049		-0.11500014		0.00000000		0.00000000		0.00000000
Mg		5.02500001		-0.09739958		2.43500044		0.00000000		0.00000000		0.00000000
Mg		0.00000000		2.77759991		2.32000030		0.00000000		0.00000000		0.00000000
Mg		2.51250001		1.34010017		2.37750037		-0.00001046		-0.00000502		 0.00000604
Mg		7.53750002		4.21509966		2.26250023		 0.00001046		 0.00000502		-0.00000604
Mg		7.53750002		1.34010017		2.37750037		 0.00000770		 0.00000112		-0.00000555
Mg		2.51250001		4.21509966		2.26250023		-0.00000770		-0.00000112		 0.00000555
O		8.23497002		-0.04324616		1.08113981		-0.00031062		-0.00028003		-0.00003616
O		1.81503001		-0.15155400		3.78886006		 0.00031062		 0.00028003		 0.00003616
O		3.20997001		2.83175434		0.96613967		-0.00031968		-0.00028299		-0.00002757
O		6.84003002		2.72344649		3.67385992		 0.00031968		 0.00028299		 0.00002757
O		3.35770501		-0.04583604		1.14591105		 0.00005545		 0.00035354		 0.00006713
O		6.69229502		-0.14896412		3.72408882		-0.00005545		-0.00035354		-0.00006713
O		8.38270502		2.82916445		1.03091091		 0.00006518		 0.00035020		 0.00005894
O		1.66729500		2.72603638		3.60908868		-0.00006518		-0.00035020		-0.00005894
O		0.91254000		1.51033712		1.03504247		 0.00009305		 0.00015415		-0.00019664
O		9.13746003		4.04486271		3.60495813		-0.00009305		-0.00015415		 0.00019664
O		9.13746003		1.40331266		3.71061981		 0.00018206		-0.00003786		-0.00010325
O		0.91254000		4.15188616		0.92937978		-0.00018206		 0.00003786		 0.00010325
O		5.93754002		4.38533661		0.92004233		 0.00010717		 0.00015245		-0.00019814
O		4.11246001		1.16986322		3.71995827		-0.00010717		-0.00015245		 0.00019814
O		4.11246001		4.27831416		3.59561967		 0.00017373		-0.00003830		-0.00009533
O		5.93754002		1.27688667		1.04437992		-0.00017373		 0.00003830		 0.00009533
