# total energy = -20634.6275431 eV

CRYSTAL
PRIMVEC
		10.05000003		0.00000000		0.00000000
		0.00000000		5.74999697		-0.45999855
		0.00000000		-0.38959830		4.86999886
PRIMECORD
   28 1
Si		3.34665001		-0.35013396		4.37666949		 0.00007461		-0.00007144		-0.00029672
Si		6.70335002		-0.03946635		0.49333139		-0.00007461		 0.00007144		 0.00029672
Si		8.37165002		2.52486553		4.14666921		 0.00007772		-0.00007421		-0.00030929
Si		1.67835000		2.83553414		0.26333111		-0.00007772		 0.00007421		 0.00030929
Mg		0.00000000		0.00000000		0.00000000		0.00000000		0.00000000		0.00000000
Mg		5.02500001		2.87500049		-0.23000028		0.00000000		0.00000000		0.00000000
Mg		5.02500001		-0.19480016		2.43500044		0.00000000		0.00000000		0.00000000
Mg		0.00000000		2.68020034		2.20500016		0.00000000		0.00000000		0.00000000
Mg		2.51250001		1.24269959		2.32000030		-0.00001453		-0.00001055		 0.00000481
Mg		7.53750002		4.11770008		2.09000002		 0.00001453		 0.00001055		-0.00000481
Mg		7.53750002		1.24269959		2.32000030		-0.00000104		 0.00000448		-0.00000481
Mg		2.51250001		4.11770008		2.09000002		 0.00000104		-0.00000448		 0.00000481
O		8.23497002		-0.08649131		1.08113981		-0.00027770		-0.00064528		 0.00025924
O		1.81503001		-0.30310901		3.78886006		 0.00027770		 0.00064528		-0.00025924
O		3.20997001		2.78850919		0.85113953		-0.00028507		-0.00065117		 0.00026434
O		6.84003002		2.57189149		3.55885978		 0.00028507		 0.00065117		-0.00026434
O		3.35770501		-0.09167309		1.14591105		 0.00029834		 0.00045341		-0.00002209
O		6.69229502		-0.29792723		3.72408882		-0.00029834		-0.00045341		 0.00002209
O		8.38270502		2.78332741		0.91591077		 0.00030626		 0.00045087		-0.00002366
O		1.66729500		2.57707327		3.49408854		-0.00030626		-0.00045087		 0.00002366
O		0.91254000		1.46644776		0.97287317		 0.00010242		-0.00023203		-0.00030090
O		9.13746003		3.89395191		3.43712715		-0.00010242		 0.00023203		 0.00030090
O		9.13746003		1.25240186		3.64845151		 0.00029571		-0.00006942		-0.00006914
O		0.91254000		4.10799781		0.76154880		-0.00029571		 0.00006942		 0.00006914
O		5.93754002		4.34144826		0.74287289		 0.00011506		-0.00023426		-0.00029826
O		4.11246001		1.01895242		3.66712743		-0.00011506		 0.00023426		 0.00029826
O		4.11246001		4.12740235		3.41845123		 0.00029684		-0.00006737		-0.00005740
O		5.93754002		1.23299832		0.99154908		-0.00029684		 0.00006737		 0.00005740
