# total energy = -20628.5873569 eV

CRYSTAL
PRIMVEC
		10.05000003		0.00000000		0.00000000
		0.00000000		5.74999697		0.91999710
		0.00000000		0.77919660		4.86999886
PRIMECORD
   28 1
Si		3.34665001		0.70026692		4.37666949		-0.00033783		 0.00001020		-0.00037641
Si		6.70335002		0.07893270		0.49333139		 0.00033783		-0.00001020		 0.00037641
Si		8.37165002		3.57526741		4.83666904		-0.00036299		 0.00003564		-0.00036478
Si		1.67835000		2.95393319		0.95333094		 0.00036299		-0.00003564		 0.00036478
Mg		0.00000000		0.00000000		0.00000000		0.00000000		0.00000000		0.00000000
Mg		5.02500001		2.87500049		0.45999956		0.00000000		0.00000000		0.00000000
Mg		5.02500001		0.38960031		2.43500044		0.00000000		0.00000000		0.00000000
Mg		0.00000000		3.26459980		2.89499999		0.00000000		0.00000000		0.00000000
Mg		2.51250001		1.82710006		2.66499971		 0.00001033		 0.00003202		 0.00004621
Mg		7.53750002		4.70209954		3.12500027		-0.00001033		-0.00003202		-0.00004621
Mg		7.53750002		1.82710006		2.66499971		 0.00000631		-0.00002969		-0.00000780
Mg		2.51250001		4.70209954		3.12500027		-0.00000631		 0.00002969		 0.00000780
O		8.23497002		0.17298161		1.08113981		-0.00010856		-0.00003574		 0.00041286
O		1.81503001		0.60621801		3.78886006		 0.00010856		 0.00003574		-0.00041286
O		3.20997001		3.04798210		1.54114037		-0.00009531		-0.00000613		 0.00044101
O		6.84003002		3.48121851		4.24885962		 0.00009531		 0.00000613		-0.00044101
O		3.35770501		0.18334617		1.14591105		 0.00050407		-0.00041729		 0.00024190
O		6.69229502		0.59585445		3.72408882		-0.00050407		 0.00041729		-0.00024190
O		8.38270502		3.05834566		1.60591061		 0.00049934		-0.00044768		 0.00022637
O		1.66729500		3.47085394		4.18408938		-0.00049934		 0.00044768		-0.00022637
O		0.91254000		1.72977887		1.34588696		-0.00038325		-0.00010542		 0.00050596
O		9.13746003		4.79942073		4.44411303		 0.00038325		 0.00010542		-0.00050596
O		9.13746003		2.15787068		4.02146530		-0.00032680		-0.00028845		-0.00011206
O		0.91254000		4.37132892		1.76853469		 0.00032680		 0.00028845		 0.00011206
O		5.93754002		4.60477936		1.80588652		-0.00042637		-0.00008310		 0.00047923
O		4.11246001		1.92442124		3.98411347		 0.00042637		 0.00008310		-0.00047923
O		4.11246001		5.03287117		4.48146486		-0.00034575		-0.00029859		-0.00012587
O		5.93754002		1.49632943		1.30853513		 0.00034575		 0.00029859		 0.00012587
