# total energy = -24716.0616727 eV	

CRYSTAL	
PRIMVEC	
		9.45728465		0.00000000		0.06630272	
		0.00000000		8.61249936		0.00000000	
		-1.56732824		0.00000000		4.82412132	
PRIMCOORD
   40 1	
Mg		2.05616492		5.65793594		1.03588844		 0.00004144		-0.00059069		 0.00001825	
Mg		5.83378475		2.95456630		3.85453464		-0.00004121		 0.00058569		-0.00001772	
Mg		6.61745080		1.35168434		1.44247302		-0.00004125		-0.00058565		-0.00001770	
Mg		1.27249888		7.26081502		3.44795006		 0.00004148		 0.00059067		 0.00001822	
Mg		2.09964189		0.14318677		1.02402758		-0.00018482		-0.00032166		-0.00045268	
Mg		5.79030682		8.46931259		3.86639453		 0.00018693		 0.00032706		 0.00045541	
Mg		6.57397286		4.44943837		1.45433291		 0.00018696		-0.00032705		 0.00045550	
Mg		1.31597585		4.16306387		3.43608920		-0.00018483		 0.00032165		-0.00045277	
Si		-0.06207480		2.95381935		1.42380501		 0.00025910		-0.00011230		 0.00041709	
Si		7.95204274		5.65869251		3.46662479		-0.00033327		 0.00006691		-0.00044212	
Si		8.73570879		7.26005845		1.05456221		-0.00033286		-0.00006787		-0.00044187	
Si		-0.84573989		1.35243129		3.83586759		 0.00025865		 0.00011334		 0.00041684	
Si		4.89986138		7.21718327		1.11591890		-0.00026616		 0.00026365		 0.00044105	
Si		2.99007483		1.39530936		3.77449552		 0.00031879		-0.00023100		-0.00040710	
Si		3.77374088		2.91094128		1.36243390		 0.00031883		 0.00023102		-0.00040700	
Si		4.11619534		5.70156769		3.52798052		-0.00026632		-0.00026354		 0.00044081	
O		7.87468765		2.93033605		0.97566322		 0.00041612		 0.00012934		 0.00020204	
O		0.01525145		5.68216426		3.91475600		-0.00037264		-0.00012553		-0.00018677	
O		0.79891653		7.23658669		1.50269439		-0.00037288		 0.00012562		-0.00018688	
O		7.09102160		1.37591459		3.38772484		 0.00041641		-0.00012943		 0.00020214	
O		0.64745851		4.36734777		1.51605971		 0.00020178		-0.00021565		-0.00028661	
O		7.24248443		4.24514197		3.37436144		-0.00017275		 0.00026146		 0.00029009	
O		8.02614952		0.06110867		0.96229982		-0.00017305		-0.00026084		 0.00029007	
O		-0.13620753		8.55140318		3.92812229		 0.00020211		 0.00021496		-0.00028660	
O		0.06101927		2.45116071		3.00743447		-0.00039941		 0.00035557		 0.00029972	
O		7.82892752		6.16134057		1.88298764		 0.00040836		-0.00035518		-0.00029324	
O		7.04526244		6.75741039		4.29504926		 0.00040820		 0.00035549		-0.00029302	
O		0.84468531		1.85508993		0.59537286		-0.00039922		-0.00035587		 0.00029951	
O		3.37512569		7.22271955		0.59261000		-0.00031189		-0.00010578		 0.00015638	
O		4.51483263		1.38978173		4.29781692		 0.00027563		 0.00010336		-0.00016893	
O		5.29849868		2.91646891		1.88575434		 0.00027552		-0.00010336		-0.00016893	
O		2.59146061		5.69603141		3.00467162		-0.00031174		 0.00010577		 0.00015647	
O		5.36609246		8.48538598		1.94233516		-0.00012470		 0.00013271		 0.00024371	
O		2.52386202		0.12712299		2.94809272		 0.00010588		-0.00016720		-0.00026505	
O		3.30752710		4.17912669		0.53603110		 0.00010589		 0.00016720		-0.00026509	
O		4.58242738		4.43336498		4.35439774		-0.00012466		-0.00013284		 0.00024383	
O		5.07936131		5.91835365		2.17053976		 0.00030409		-0.00071338		-0.00040604	
O		2.81059028		2.69414571		2.71988428		-0.00031128		 0.00071685		 0.00040253	
O		3.59425633		1.61210493		0.30782266		-0.00031131		-0.00071691		 0.00040251	
O		4.29569527		7.00039731		4.58260138		 0.00030412		 0.00071344		-0.00040604	
