# total energy = -24716.8556632 eV	

CRYSTAL	
PRIMVEC	
		9.61455774		0.00000000		0.03347340	
		0.00000000		8.79969855		0.00000000	
		-1.61058796		0.00000000		4.89863377	
PRIMCOORD
   40 1	
Mg		2.06801232		5.75778993		1.06416779		 0.00066104		-0.00022156		-0.00017978	
Mg		5.93596227		3.04190766		3.86793938		-0.00066102		 0.00022119		 0.00017984	
Mg		6.74125529		1.35794066		1.41862154		-0.00066098		-0.00022123		 0.00017983	
Mg		1.26271930		7.44175598		3.51348564		 0.00066100		 0.00022150		-0.00017979	
Mg		2.11243812		0.12583385		1.04895191		 0.00081101		 0.00029549		 0.00009634	
Mg		5.89153647		8.67386374		3.88315527		-0.00081089		-0.00029511		-0.00009620	
Mg		6.69682949		4.52568217		1.43383742		-0.00081090		 0.00029511		-0.00009620	
Mg		1.30714510		4.27401542		3.49826975		 0.00081102		-0.00029546		 0.00009635	
Si		-0.06029154		3.00505904		1.44832077		-0.00040401		 0.00015172		 0.00009461	
Si		8.06426709		5.79463856		3.48378736		 0.00039958		-0.00015466		-0.00009613	
Si		8.86956011		7.40490735		1.03446952		 0.00039950		 0.00015472		-0.00009617	
Si		-0.86558456		1.39478928		3.89763766		-0.00040398		-0.00015179		 0.00009462	
Si		4.95322272		7.36950553		1.13419565		 0.00040900		-0.00015665		-0.00035625	
Si		3.05075091		1.43019111		3.79791056		-0.00040572		 0.00015869		 0.00035828	
Si		3.85604392		2.96965721		1.34859367		-0.00040577		-0.00015864		 0.00035823	
Si		4.14792970		5.83004038		3.58351350		 0.00040900		 0.00015661		-0.00035619	
O		8.02660134		2.98877512		0.94590727		-0.00035841		 0.00012433		-0.00016085	
O		-0.02262771		5.81092247		3.98619990		 0.00036095		-0.00012405		 0.00016175	
O		0.78266530		7.38862343		1.53688302		 0.00036094		 0.00012405		 0.00016183	
O		7.22130832		1.41107416		3.39522416		-0.00035845		-0.00012430		-0.00016087	
O		0.66137660		4.42222897		1.56596220		 0.00037484		-0.00005609		-0.00021920	
O		7.34259702		4.37746766		3.36614498		-0.00037301		 0.00005903		 0.00021943	
O		8.14789004		0.02238065		0.91682713		-0.00037297		-0.00005904		 0.00021948	
O		-0.14391641		8.77731694		4.01528004		 0.00037483		 0.00005619		-0.00021922	
O		0.03754943		2.48707396		3.03648770		-0.00007602		 0.00032406		 0.00027145	
O		7.96642419		6.31262267		1.89561947		 0.00007659		-0.00032404		-0.00027106	
O		7.16113118		6.88692324		4.34493636		 0.00007654		 0.00032405		-0.00027110	
O		0.84284245		1.91277435		0.58717081		-0.00007605		-0.00032405		 0.00027141	
O		3.41231751		7.38751214		0.61372170		 0.00058366		-0.00025609		 0.00018568	
O		4.59165708		1.41218545		4.31838547		-0.00058579		 0.00025596		-0.00018642	
O		5.39695009		2.98766382		1.86906859		-0.00058577		-0.00025596		-0.00018638	
O		2.60702449		5.81203377		3.06303859		 0.00058362		 0.00025611		 0.00018562	
O		5.46625119		8.65078901		1.93713053		 0.00012755		-0.00037647		 0.00005220	
O		2.53772340		0.14890858		2.99497664		-0.00012878		 0.00037434		-0.00005345	
O		3.34301641		4.25093973		0.54565879		-0.00012874		-0.00037435		-0.00005345	
O		4.66095818		4.54875690		4.38644838		 0.00012753		 0.00037645		 0.00005221	
O		5.10901537		6.08081982		2.21706894		-0.00038619		 0.00018515		-0.00007360	
O		2.89495922		2.71887777		2.71503823		 0.00038569		-0.00018499		 0.00007341	
O		3.70025128		1.68097151		0.26572135		 0.00038567		 0.00018493		 0.00007339	
O		4.30372235		7.11872609		4.66638583		-0.00038612		-0.00018514		-0.00007362	
