# total energy = -12346.5460783 eV	

CRYSTAL	
PRIMVEC	
		4.44490009		0.00000000		0.00000000	
		0.00000000		4.66479819		0.00000000	
		0.00000000		0.00000000		6.29304066	
PRIMCOORD
   20 1	
O		0.47515982		2.21811227		1.57325994		 0.00059569		 0.00035717		-0.00000000	
O		3.96974027		2.44668814		4.71978027		-0.00059569		-0.00035717		-0.00000000	
O		2.69760987		0.11428816		4.71978027		 0.00059569		-0.00035717		0.00000000	
O		1.74729023		4.55051314		1.57325994		-0.00059569		 0.00035717		0.00000000	
O		0.83697513		0.90450517		3.53731817		 0.00043488		 0.00025881		-0.00012687	
O		3.60792496		3.76029525		2.75572205		-0.00043488		-0.00025881		 0.00012687	
O		3.05942518		1.42789482		2.75572205		 0.00043488		-0.00025881		 0.00012687	
O		1.38547491		3.23690515		3.53731817		-0.00043488		 0.00025881		-0.00012687	
O		3.60792496		3.76029525		0.39079784		-0.00043488		-0.00025881		-0.00012687	
O		0.83697513		0.90450517		5.90224193		 0.00043488		 0.00025881		 0.00012687	
O		1.38547491		3.23690515		5.90224193		-0.00043488		 0.00025881		 0.00012687	
O		3.05942518		1.42789482		0.39079784		 0.00043488		-0.00025881		-0.00012687	
Mg		2.30334723		2.71351416		1.57325994		-0.00071845		-0.00041751		-0.00000000	
Mg		2.14155286		1.95128625		4.71978027		 0.00071845		 0.00041751		-0.00000000	
Mg		0.08089718		4.28368623		4.71978027		-0.00071845		 0.00041751		0.00000000	
Mg		4.36400291		0.38111418		1.57325994		 0.00071845		-0.00041751		0.00000000	
Si		2.22245005		0.00000000		3.14651988		0.00000000		0.00000000		-0.00000000	
Si		0.00000000		2.33239998		3.14651988		0.00000000		0.00000000		-0.00000000	
Si		2.22245005		0.00000000		0.00000000		0.00000000		0.00000000		0.00000000	
Si		0.00000000		2.33239998		0.00000000		0.00000000		0.00000000		-0.00000000	
