# total energy = -18532.0172383 eV	

CRYSTAL	
PRIMVEC	
		4.68599846		0.00000000		-0.37487894	
		-2.34300158		4.05819318		0.18744182	
		-1.06327974		0.00000000		13.29099906	
PRIMCOORD
   30 1	
O		1.16859277		0.13229708		3.09706696		 0.00014637		-0.00050774		-0.00050269	
O		0.11112720		3.92589798		10.00649263		-0.00014637		 0.00050774		 0.00050269	
O		3.60179800		1.16835396		2.90241103		-0.00003465		-0.00026755		 0.00022513	
O		-2.32207803		2.88984063		10.20114856		 0.00003465		 0.00026755		-0.00022513	
O		1.48794384		2.75754308		3.07151906		 0.00020277		 0.00094229		-0.00024153	
O		-0.20822387		1.30065104		10.03204053		-0.00020277		-0.00094229		 0.00024153	
O		3.15716605		1.48502877		7.33996082		 0.00014614		-0.00050750		-0.00050322	
O		0.81998098		1.22043414		1.14582597		-0.00014589		 0.00050733		 0.00050376	
O		0.90437093		2.52108565		7.52018383		-0.00003494		-0.00026738		 0.00022443	
O		3.07277469		0.18437679		0.96560296		 0.00003520		 0.00026725		-0.00022375	
O		1.13351695		0.05208018		7.50185286		 0.00020281		 0.00094218		-0.00024196	
O		2.84363008		2.65338273		0.98393393		-0.00020293		-0.00094209		 0.00024240	
O		0.45973899		2.83775998		11.95773362		 0.00014589		-0.00050733		-0.00050376	
O		-1.87744608		2.57316583		5.76359877		-0.00014614		 0.00050750		 0.00050322	
O		-1.79305472		3.87381781		12.13795757		-0.00003520		-0.00026725		 0.00022375	
O		0.37534809		1.53710894		5.58337576		 0.00003494		 0.00026738		-0.00022443	
O		-1.56391012		1.40481187		12.11962519		 0.00020293		 0.00094209		-0.00024240	
O		0.14620302		4.00611488		5.60170767		-0.00020281		-0.00094218		 0.00024196	
Mg		-0.38129200		0.00000000		4.76615284		 0.00013358		 0.00026839		-0.00028880	
Mg		-0.68198773		0.00000000		8.52484669		-0.00013358		-0.00026839		 0.00028880	
Mg		1.60728081		1.35273216		9.00904576		 0.00013363		 0.00026835		-0.00028884	
Mg		1.30658507		1.35273216		12.76774055		-0.00013362		-0.00026834		 0.00028888	
Mg		-0.02686605		2.70546290		0.33581904		 0.00013362		 0.00026834		-0.00028888	
Mg		-0.32756084		2.70546290		4.09451382		-0.00013363		-0.00026835		 0.00028884	
Si		-0.16693477		0.00000000		2.08668678		-0.00026181		 0.00018613		 0.00007578	
Si		-0.89634496		0.00000000		11.20431228		 0.00026181		-0.00018613		-0.00007578	
Si		1.82163804		1.35273216		6.32958064		-0.00026144		 0.00018611		 0.00007673	
Si		2.15550805		1.35273216		2.15620568		 0.00026108		-0.00018600		-0.00007766	
Si		-0.87578809		2.70546290		10.94735344		-0.00026108		 0.00018600		 0.00007766	
Si		-0.54191807		2.70546290		6.77397989		 0.00026144		-0.00018611		-0.00007673	
