# total energy = -117592.857573 eV

CRYSTAL
PRIMVEC
		10.58799967		0.00000000		0.00000000
		0.00000000		15.50669727		0.00000000
		-2.45393833		0.00000000		9.76951553
PRIMECORD
   156 1
Si		8.18330189		0.01535154		0.72440976		-0.00009729		 0.00007655		-0.00029220
Si		-0.04923632		15.49134891		9.04511107		 0.00009729		-0.00007655		 0.00029220
Si		1.17773073		7.76870124		4.16035012		 0.00009729		 0.00007655		 0.00029220
Si		6.95633484		7.73799815		5.60917070		-0.00009729		-0.00007655		-0.00029220
Si		3.61492732		2.94069091		6.58055403		-0.00013157		-0.00008705		-0.00014865
Si		4.51914037		12.56600954		3.18896680		 0.00013157		 0.00008705		 0.00014865
Si		3.29217333		10.69403955		8.07372668		 0.00013157		-0.00008705		 0.00014865
Si		4.84189437		4.81265984		1.69579309		-0.00013157		 0.00008705		-0.00014865
Si		1.21183891		1.94609128		4.16914240		 0.00003182		-0.00033130		 0.00000300
Si		6.92222666		13.56060917		5.60037737		-0.00003182		 0.00033130		-0.00000300
Si		8.14919371		9.69943992		0.71561749		-0.00003182		-0.00033130		-0.00000300
Si		-0.01512708		5.80725841		9.05390228		 0.00003182		 0.00033130		 0.00000300
Si		6.86524205		1.91244050		5.59793578		-0.00020777		-0.00043448		-0.00018230
Si		1.26882459		13.59425889		4.17158505		 0.00020777		 0.00043448		 0.00018230
Si		0.04185754		9.66579019		9.05634599		 0.00020777		-0.00043448		 0.00018230
Si		8.09220909		5.84090919		0.71317484		-0.00020777		 0.00043448		-0.00018230
Mg		4.06703279		0.00000000		4.88475988		0.00000000		0.00000000		0.00000000
Mg		5.29399984		7.75334969		0.00000000		0.00000000		0.00000000		0.00000000
Mg		4.39572559		2.70607354		3.48175993		 0.00006940		-0.00035840		-0.00019449
Mg		3.73834104		12.80062584		6.28776090		-0.00006940		 0.00035840		 0.00019449
Mg		4.96530809		10.45942324		1.40300101		-0.00006940		-0.00035840		 0.00019449
Mg		3.16875854		5.04727615		8.36651981		 0.00006940		 0.00035840		-0.00019449
Mg		5.29399984		0.00000000		0.00000000		0.00000000		0.00000000		-0.00000000
Mg		4.06703279		7.75334969		4.88475988		0.00000000		0.00000000		0.00000000
Mg		6.19165257		0.03861232		2.86383686		-0.00005805		-0.00018863		 0.00040053
Mg		1.94241301		15.46808813		6.90568397		 0.00005805		 0.00018863		-0.00040053
Mg		3.16938006		7.79196201		2.02092303		 0.00005805		-0.00018863		-0.00040053
Mg		4.96468552		7.71473738		7.74859780		-0.00005805		 0.00018863		 0.00040053
Mg		0.42170944		0.00542741		1.48887498		-0.00022362		-0.00000342		 0.00037332
Mg		7.71235825		15.50127304		8.28064584		 0.00022362		 0.00000342		-0.00037332
Mg		8.93932424		7.75877710		3.39588490		 0.00022362		-0.00000342		-0.00037332
Mg		-0.80525761		7.74792229		6.37363593		-0.00022362		 0.00000342		 0.00037332
Mg		-0.86838750		0.00542741		6.20091071		 0.00006380		 0.00033168		 0.00008395
Mg		9.00245519		15.50127304		3.56861011		-0.00006380		-0.00033168		-0.00008395
Mg		7.77548814		7.75877710		8.45337106		-0.00006380		 0.00033168		-0.00008395
Mg		0.35857849		7.74792229		1.31614977		 0.00006380		-0.00033168		 0.00008395
Mg		3.19404057		0.04295446		2.10484245		 0.00001471		 0.00025648		 0.00048561
Mg		4.94002607		15.46374599		7.66467731		-0.00001471		-0.00025648		-0.00048561
Mg		6.16699311		7.79630415		2.77991743		-0.00001471		 0.00025648		-0.00048561
Mg		1.96707352		7.71039524		6.98960340		 0.00001471		-0.00025648		 0.00048561
Mg		6.57114024		2.63520912		1.20761007		 0.00048009		 0.00002464		-0.00023583
Mg		1.56292640		12.87149133		8.56190970		-0.00048009		-0.00002464		 0.00023583
Mg		2.78989239		10.38855882		3.67714982		-0.00048009		 0.00002464		 0.00023583
Mg		5.34417319		5.11814163		6.09237101		 0.00048009		-0.00002464		-0.00023583
Mg		-1.63791484		2.68312406		9.47360212		 0.00007257		 0.00006774		-0.00011488
Mg		9.77198042		12.82357533		0.29591871		-0.00007257		-0.00006774		 0.00011488
Mg		8.54501337		10.43647481		5.18067859		-0.00007257		 0.00006774		 0.00011488
Mg		-0.41094780		5.07022458		4.58884223		 0.00007257		-0.00006774		-0.00011488
Mg		0.46893509		2.74778709		7.34638722		 0.00009173		-0.00054345		 0.00022679
Mg		7.66513154		12.75891230		2.42313361		-0.00009173		 0.00054345		-0.00022679
Mg		6.43816449		10.50113784		7.30789455		-0.00009173		-0.00054345		-0.00022679
Mg		1.69590108		5.00556261		2.46162628		 0.00009173		 0.00054345		 0.00022679
Mg		6.00405545		2.72809341		8.74235357		 0.00005163		-0.00025164		-0.00011826
Mg		2.13001119		12.77860598		1.02716726		-0.00005163		 0.00025164		 0.00011826
Mg		0.90304414		10.48144416		5.91192820		-0.00005163		-0.00025164		 0.00011826
Mg		7.23102249		5.02525629		3.85759262		 0.00005163		 0.00025164		-0.00011826
Mg		3.60529224		2.61396430		0.44060478		-0.00028345		 0.00014255		-0.00013014
Mg		4.52877334		12.89273509		9.32891604		 0.00028345		-0.00014255		 0.00013014
Mg		5.75574038		10.36731399		4.44415510		 0.00028345		 0.00014255		 0.00013014
Mg		2.37832519		5.13938539		5.32536573		-0.00028345		-0.00014255		-0.00013014
Mg		9.40458318		2.75243840		1.94237595		 0.00012637		 0.00024258		-0.00003022
Mg		-1.27051655		12.75426099		7.82714488		-0.00012637		-0.00024258		 0.00003022
Mg		-0.04354950		10.50578915		2.94238393		-0.00012637		 0.00024258		 0.00003022
Mg		8.17761719		5.00091130		6.82713584		 0.00012637		-0.00024258		-0.00003022
O		3.63390525		1.16610405		6.54167066		-0.00010458		-0.00073186		-0.00002140
O		4.50016138		14.34059534		3.22785017		 0.00010458		 0.00073186		 0.00002140
O		3.27319539		8.91945374		8.11261005		 0.00010458		-0.00073186		 0.00002140
O		4.86087230		6.58724564		1.65691077		-0.00010458		 0.00073186		-0.00002140
O		5.72267194		1.34753154		4.50667936		-0.00027326		 0.00015848		-0.00056115
O		2.41139469		14.15916785		5.26284041		 0.00027326		-0.00015848		 0.00056115
O		3.63836068		9.10088124		0.37808053		 0.00027326		 0.00015848		 0.00056115
O		4.49570490		6.40581815		9.39144030		-0.00027326		-0.00015848		-0.00056115
O		6.88739955		3.72160777		5.59402775		 0.00002128		-0.00018877		-0.00029565
O		1.24666708		11.78509162		4.17549308		-0.00002128		 0.00018877		 0.00029565
O		0.01970003		11.47495746		9.06025402		-0.00002128		-0.00018877		 0.00029565
O		8.11436554		4.03174193		0.70926680		 0.00002128		 0.00018877		-0.00029565
O		6.50173167		1.33047533		7.12100365		-0.00023416		-0.00005034		 0.00027949
O		1.63233497		14.17622406		2.64851718		 0.00023416		 0.00005034		-0.00027949
O		0.40536792		9.08382503		7.53327706		 0.00023416		-0.00005034		-0.00027949
O		7.72869871		6.42287436		2.23624271		-0.00023416		 0.00005034		 0.00027949
O		1.23586097		3.76037467		4.15106868		-0.00004107		-0.00018949		-0.00011198
O		6.89820461		11.74632472		5.61845109		 0.00004107		 0.00018949		 0.00011198
O		8.12517166		11.51372437		0.73369120		 0.00004107		-0.00018949		 0.00011198
O		0.00889392		3.99297502		9.03582963		-0.00004107		 0.00018949		-0.00011198
O		2.73335141		1.35683628		3.75345012		 0.00035290		 0.00011447		-0.00010529
O		5.40071417		14.14986311		6.01607071		-0.00035290		-0.00011447		 0.00010529
O		6.62768122		9.11018597		1.13130977		-0.00035290		 0.00011447		 0.00010529
O		1.50638648		6.39651342		8.63821000		 0.00035290		-0.00011447		-0.00010529
O		0.80050677		1.35063383		5.68195261		-0.00004389		 0.00016121		 0.00039061
O		7.33355880		14.15606556		4.08756715		 0.00004389		-0.00016121		-0.00039061
O		6.10659175		9.10398352		8.97232810		 0.00004389		 0.00016121		-0.00039061
O		2.02747382		6.40271587		0.79719273		-0.00004389		-0.00016121		 0.00039061
O		0.07524997		1.36613995		3.09791530		-0.00034837		 0.00053064		-0.00013427
O		8.05881560		14.14055944		6.67160553		 0.00034837		-0.00053064		 0.00013427
O		9.28578265		9.11949070		1.78684459		 0.00034837		 0.00053064		 0.00013427
O		-1.15171602		6.38720974		7.98267518		-0.00034837		-0.00053064		-0.00013427
O		3.98348606		3.74176732		5.17100646		 0.00005733		-0.00020417		-0.00031094
O		4.15057952		11.76493313		4.59851437		-0.00005733		 0.00020417		 0.00031094
O		2.92361247		11.49511701		9.48327320		-0.00005733		-0.00020417		 0.00031094
O		5.21045311		4.01158343		0.28624657		 0.00005733		 0.00020417		-0.00031094
O		4.65489441		3.69989919		7.61534147		-0.00001617		 0.00027954		-0.00025097
O		3.47917116		11.80680020		2.15417936		 0.00001617		-0.00027954		 0.00025097
O		2.25220517		11.45324889		7.03894030		 0.00001617		 0.00027954		 0.00025097
O		5.88186146		4.05345050		2.73058053		-0.00001617		-0.00027954		-0.00025097
O		4.87379495		1.31961946		1.68133411		-0.00006099		-0.00003853		 0.00033905
O		3.26027062		14.18707993		8.08818566		 0.00006099		 0.00003853		-0.00033905
O		4.48723767		9.07297021		3.20342577		 0.00006099		-0.00003853		-0.00033905
O		3.64682896		6.43373024		6.56609506		-0.00006099		 0.00003853		 0.00033905
O		4.67919493		1.15369809		9.47448092		-0.00040221		-0.00063689		-0.00024670
O		3.45487170		14.35300130		0.29503990		 0.00040221		 0.00063689		 0.00024670
O		2.22790466		8.90704884		5.17979979		 0.00040221		-0.00063689		 0.00024670
O		5.90616198		6.59965055		4.58972104		-0.00040221		 0.00063689		-0.00024670
O		7.85626399		1.17385658		2.14147905		-0.00004885		-0.00037949		 0.00030310
O		0.27780158		14.33284281		7.62804178		 0.00004885		 0.00037949		-0.00030310
O		1.50476863		8.92720628		2.74328083		 0.00004885		-0.00037949		-0.00030310
O		6.62929800		6.57949311		7.02623999		-0.00004885		 0.00037949		 0.00030310
O		-1.10338921		1.10717760		8.03054564		-0.00014375		 0.00011057		-0.00012836
O		9.23745584		14.39952179		1.73897412		 0.00014375		-0.00011057		 0.00012836
O		8.01048880		8.86052729		6.62373507		 0.00014375		 0.00011057		 0.00012836
O		0.12357784		6.64617210		3.14578576		-0.00014375		-0.00011057		-0.00012836
O		9.65343718		1.23433312		0.27257005		-0.00004971		-0.00009534		-0.00001842
O		-1.51937054		14.27236627		9.49695078		 0.00004971		 0.00009534		 0.00001842
O		-0.29240349		8.98768281		4.61219089		 0.00004971		-0.00009534		 0.00001842
O		8.42647013		6.51901657		5.15732994		-0.00004971		 0.00009534		-0.00001842
O		1.35807613		1.13819197		8.63430303		 0.00024172		 0.00009190		-0.00000245
O		6.77599050		14.36850742		1.13521780		-0.00024172		-0.00009190		 0.00000245
O		5.54902345		8.89154166		6.01997768		-0.00024172		 0.00009190		 0.00000245
O		2.58504318		6.61515773		3.74954209		 0.00024172		-0.00009190		-0.00000245
O		2.03629998		1.13043837		0.69461301		-0.00014575		-0.00014475		 0.00047915
O		6.09776666		14.37626208		9.07490781		 0.00014575		 0.00014475		-0.00047915
O		7.32473264		8.88378807		4.19014793		 0.00014575		-0.00014475		-0.00047915
O		0.80933293		6.62291132		5.57937290		-0.00014575		 0.00014475		 0.00047915
O		2.21259335		3.70920287		6.99009150		 0.00002835		 0.00037867		 0.00016283
O		5.92147434		11.79749758		2.77942932		-0.00002835		-0.00037867		-0.00016283
O		4.69450729		11.46255256		7.66418921		-0.00002835		 0.00037867		-0.00016283
O		3.43956040		4.04414683		2.10533162		 0.00002835		-0.00037867		 0.00016283
O		8.35511654		1.32117060		5.16319145		 0.00013956		 0.00045205		-0.00037635
O		-0.22104990		14.18552879		4.60632937		-0.00013956		-0.00045205		 0.00037635
O		-1.44801695		9.07452029		9.49108820		-0.00013956		 0.00045205		 0.00037635
O		9.58208359		6.43217910		0.27843157		 0.00013956		-0.00045205		-0.00037635
O		-0.84821948		3.84100970		6.22220742		 0.00008952		-0.00017016		-0.00005704
O		8.98228717		11.66569075		3.54731341		-0.00008952		 0.00017016		 0.00005704
O		7.75532012		11.59435834		8.43207224		-0.00008952		-0.00017016		 0.00005704
O		0.37874651		3.91233999		1.33744647		 0.00008952		 0.00017016		-0.00005704
O		8.86703150		3.84721215		3.55512841		 0.00002723		-0.00004820		 0.00038720
O		-0.73296592		11.65948724		6.21439135		-0.00002723		 0.00004820		-0.00038720
O		0.49400112		11.60056184		1.32963147		-0.00002723		-0.00004820		-0.00038720
O		7.64006445		3.90613754		8.43988830		 0.00002723		 0.00004820		 0.00038720
H		-1.20765983		2.99279340		5.86171250		 0.00037399		-0.00007900		-0.00000560
H		9.34172647		12.51390705		3.90780833		-0.00037399		 0.00007900		 0.00000560
H		8.11475942		10.74614309		8.79256822		-0.00037399		-0.00007900		 0.00000560
H		0.01930722		4.76055735		0.97695155		 0.00037399		 0.00007900		-0.00000560
H		8.69894806		3.16336713		4.06412109		-0.00043099		 0.00092419		 0.00029747
H		-0.56488143		12.34333226		5.70539974		 0.00043099		-0.00092419		-0.00029747
H		0.66208562		10.91671683		0.82063986		 0.00043099		 0.00092419		-0.00029747
H		7.47198101		4.58998256		8.94888097		-0.00043099		-0.00092419		 0.00029747
