# total energy = -2552.7771529 eV

CRYSTAL
PRIMVEC
		3.14199968		0.00000000		0.00000000
		-1.57099984		2.72105027		0.00000000
		0.00000000		0.00000000		5.24259928
PRIMECORD
   5 1
Mg		0.00000000		0.00000000		0.00000000		0.00000000		0.00000000		0.00000000
O		0.00000000		1.81403477		1.16176004		0.00000000		-0.00000000		-0.00000756
O		1.57099984		0.90701676		4.08083955		0.00000000		-0.00000000		 0.00000756
H		0.00000000		1.81403477		2.25589073		0.00000000		-0.00000000		 0.00016315
H		1.57099984		0.90701676		2.98670854		0.00000000		0.00000000		-0.00016315
