# total energy = -2552.846562 eV

CRYSTAL
PRIMVEC
		3.14199968		0.00000000		0.00000000
		-1.57099984		2.72105027		0.00000000
		0.00000000		0.00000000		4.40854918
PRIMECORD
   5 1
Mg		0.00000000		0.00000000		0.00000000		0.00000000		0.00000000		0.00000000
O		0.00000000		1.81403477		0.97693505		0.00000000		-0.00000000		-0.00005385
O		1.57099984		0.90701676		3.43161476		0.00000000		-0.00000000		 0.00005385
H		0.00000000		1.81403477		1.89699896		0.00000000		0.00000000		 0.00012787
H		1.57099984		0.90701676		2.51155085		0.00000000		-0.00000000		-0.00012787
