# total energy = -2552.82367543 eV

CRYSTAL
PRIMVEC
		3.14199968		0.00000000		0.00000000
		-1.57099984		2.72105027		0.00000000
		0.00000000		0.00000000		5.00430059
PRIMECORD
   5 1
Mg		0.00000000		0.00000000		0.00000000		0.00000000		0.00000000		0.00000000
O		0.00000000		1.81403477		1.10895276		0.00000000		0.00000000		-0.00029641
O		1.57099984		0.90701676		3.89534657		0.00000000		0.00000000		 0.00029641
H		0.00000000		1.81403477		2.15334969		0.00000000		0.00000000		 0.00025165
H		1.57099984		0.90701676		2.85094965		0.00000000		-0.00000000		-0.00025165
