# total energy = -2552.80062029 eV

CRYSTAL
PRIMVEC
		3.14199968		0.00000000		0.00000000
		-1.57099984		2.72105027		0.00000000
		0.00000000		0.00000000		5.12344836
PRIMECORD
   5 1
Mg		0.00000000		0.00000000		0.00000000		-0.00000000		0.00000000		0.00000000
O		0.00000000		1.81403477		1.13535593		0.00000000		0.00000000		-0.00006848
O		1.57099984		0.90701676		3.98809275		0.00000000		0.00000000		 0.00006848
H		0.00000000		1.81403477		2.20461989		0.00000000		0.00000000		 0.00000147
H		1.57099984		0.90701676		2.91882878		0.00000000		-0.00000000		-0.00000147
