# total energy = -44013.0784285 eV

CRYSTAL
PRIMVEC
		10.06344960		0.00000000		0.00000000
		0.00000000		18.04699550		0.00000000
		-1.36747185		0.00000000		5.10350738
PRIMECORD
   82 1
Si		2.41647175		1.51594798		1.51267938		 0.00045742		 0.00018198		-0.00002377
Si		6.27950399		16.53105254		3.59082499		-0.00045742		-0.00018198		 0.00002377
Si		6.27950399		1.51594798		3.59082499		-0.00045742		 0.00018198		 0.00002377
Si		2.41647175		16.53105254		1.51267938		 0.00045742		-0.00018198		-0.00002377
Si		7.44819755		10.53944774		1.51267938		 0.00054928		 0.00019237		 0.00000426
Si		1.24777919		7.50755278		3.59082499		-0.00054928		-0.00019237		-0.00000426
Si		1.24777919		10.53944774		3.59082499		-0.00054928		 0.00019237		-0.00000426
Si		7.44819755		7.50755278		1.51267938		 0.00054928		-0.00019237		 0.00000426
Si		1.80559620		3.08784170		4.10423804		 0.00010764		-0.00056398		-0.00008756
Si		6.89038054		14.95915882		0.99926633		-0.00010764		 0.00056398		 0.00008756
Si		6.89038054		3.08784170		0.99926633		-0.00010764		-0.00056398		 0.00008756
Si		1.80559620		14.95915882		4.10423804		 0.00010764		 0.00056398		-0.00008756
Si		6.83732100		12.11134247		4.10423804		 0.00020449		-0.00050271		-0.00006827
Si		1.85865574		5.93565806		0.99926633		-0.00020449		 0.00050271		 0.00006827
Si		1.85865574		12.11134247		0.99926633		-0.00020449		-0.00050271		 0.00006827
Si		6.83732100		5.93565806		4.10423804		 0.00020449		 0.00050271		-0.00006827
O		2.65318018		2.13856959		3.00290216		 0.00024212		-0.00080756		 0.00026746
O		6.04279555		15.90842994		2.10060220		-0.00024212		 0.00080756		-0.00026746
O		6.04279555		2.13856959		2.10060220		-0.00024212		-0.00080756		-0.00026746
O		2.65318018		15.90842994		3.00290216		 0.00024212		 0.00080756		 0.00026746
O		7.68490498		11.16206935		3.00290216		 0.00021991		-0.00078044		 0.00024687
O		1.01107176		6.88493118		2.10060220		-0.00021991		 0.00078044		-0.00024687
O		1.01107176		11.16206935		2.10060220		-0.00021991		-0.00078044		-0.00024687
O		7.68490498		6.88493118		3.00290216		 0.00021991		 0.00078044		 0.00024687
O		0.82720851		1.55204155		1.10797071		 0.00000760		-0.00025942		 0.00056011
O		7.86876722		16.49495696		3.99553265		-0.00000760		 0.00025942		-0.00056011
O		7.86876722		1.55204155		3.99553265		-0.00000760		-0.00025942		-0.00056011
O		0.82720851		16.49495696		1.10797071		 0.00000760		 0.00025942		 0.00056011
O		5.85893331		10.57554232		1.10797071		-0.00008594		-0.00024936		 0.00053709
O		2.83704242		7.47145720		3.99553265		 0.00008594		 0.00024936		-0.00053709
O		2.83704242		10.57554232		3.99553265		 0.00008594		-0.00024936		-0.00053709
O		5.85893331		7.47145720		1.10797071		-0.00008594		 0.00024936		 0.00053709
O		2.59236776		4.47565581		4.04860930		-0.00002095		-0.00017706		 0.00021633
O		6.10360898		13.57134371		1.05489406		 0.00002095		 0.00017706		-0.00021633
O		6.10360898		4.47565581		1.05489406		 0.00002095		-0.00017706		-0.00021633
O		2.59236776		13.57134371		4.04860930		-0.00002095		 0.00017706		 0.00021633
O		7.62409256		13.49915658		4.04860930		-0.00003768		-0.00020965		 0.00022758
O		1.07188418		4.54784395		1.05489406		 0.00003768		 0.00020965		-0.00022758
O		1.07188418		13.49915658		1.05489406		 0.00003768		-0.00020965		-0.00022758
O		7.62409256		4.54784395		4.04860930		-0.00003768		 0.00020965		 0.00022758
O		2.99194407		0.00000000		1.49073300		-0.00023685		0.00000000		 0.00074178
O		5.70403267		0.00000000		3.61277035		 0.00023685		0.00000000		-0.00074178
O		8.02366887		9.02349976		1.49073300		-0.00030489		0.00000000		 0.00074295
O		0.67230787		9.02349976		3.61277035		 0.00030489		0.00000000		-0.00074295
O		0.20246755		3.08964709		3.69493641		 0.00013983		 0.00047126		 0.00019025
O		8.49350718		14.95735344		1.40856695		-0.00013983		-0.00047126		-0.00019025
O		8.49350718		3.08964709		1.40856695		-0.00013983		 0.00047126		-0.00019025
O		0.20246755		14.95735344		3.69493641		 0.00013983		-0.00047126		 0.00019025
O		5.23419235		12.11314785		3.69493641		 0.00008734		 0.00050103		 0.00017347
O		3.46178339		5.93385368		1.40856695		-0.00008734		-0.00050103		-0.00017347
O		3.46178339		12.11314785		1.40856695		-0.00008734		 0.00050103		-0.00017347
O		5.23419235		5.93385368		3.69493641		 0.00008734		-0.00050103		 0.00017347
O		0.12493672		0.00000000		3.65002625		 0.00075508		0.00000000		 0.00064397
O		8.57103902		0.00000000		1.45347811		-0.00075508		0.00000000		-0.00064397
O		5.15666152		9.02349976		3.65002625		-0.00023652		0.00000000		 0.00035494
O		3.53931422		9.02349976		1.45347811		 0.00023652		0.00000000		-0.00035494
O		3.35133200		2.42371240		0.50626800		 0.00068619		 0.00049190		 0.00055232
O		5.34464374		15.62328813		4.59723536		-0.00068619		-0.00049190		-0.00055232
O		5.34464374		2.42371240		4.59723536		-0.00068619		 0.00049190		-0.00055232
O		3.35133200		15.62328813		0.50626800		 0.00068619		-0.00049190		 0.00055232
O		8.38305680		11.44721216		0.50626800		 0.00067158		 0.00050562		 0.00056908
O		0.31291995		6.59978736		4.59723536		-0.00067158		-0.00050562		-0.00056908
O		0.31291995		11.44721216		4.59723536		-0.00067158		 0.00050562		-0.00056908
O		8.38305680		6.59978736		0.50626800		 0.00067158		-0.00050562		 0.00056908
Ca		-0.68373693		5.00984686		2.55175168		0.00000000		-0.00008157		0.00000000
Ca		-0.68373693		13.03715367		2.55175168		0.00000000		 0.00008157		0.00000000
Ca		4.34798787		14.03334763		2.55175168		0.00000000		-0.00004750		0.00000000
Ca		4.34798787		4.01365290		2.55175168		0.00000000		 0.00004750		0.00000000
Mg		0.00000000		0.00000000		0.00000000		0.00000000		0.00000000		0.00000000
Mg		5.03172480		9.02349976		0.00000000		0.00000000		0.00000000		0.00000000
Mg		0.00000000		3.18709952		0.00000000		0.00000000		-0.00051664		0.00000000
Mg		0.00000000		14.85990000		0.00000000		0.00000000		 0.00051664		0.00000000
Mg		5.03172480		12.21059928		0.00000000		0.00000000		-0.00051439		0.00000000
Mg		5.03172480		5.83640024		0.00000000		0.00000000		 0.00051439		0.00000000
Mg		-0.68373693		1.58452737		2.55175168		0.00000000		-0.00003467		0.00000000
Mg		-0.68373693		16.46247315		2.55175168		0.00000000		 0.00003467		0.00000000
Mg		4.34798787		10.60802713		2.55175168		0.00000000		-0.00003596		0.00000000
Mg		4.34798787		7.43897339		2.55175168		0.00000000		 0.00003596		0.00000000
H		0.94967164		0.00000000		3.92969757		-0.00090165		-0.00000000		-0.00016104
H		7.74630410		0.00000000		1.17380579		 0.00090165		-0.00000000		 0.00016104
H		5.98139644		9.02349976		3.92969757		-0.00002409		0.00000000		 0.00008760
H		2.71458031		9.02349976		1.17380579		 0.00002409		0.00000000		-0.00008760
