# total energy = -44011.5933942 eV

CRYSTAL
PRIMVEC
		9.32710005		0.00000000		0.00000000
		0.00000000		18.04699657		0.00000000
		-1.26741299		0.00000000		5.10350001
PRIMECORD
   82 1
Si		2.23965684		1.51594756		1.51267935		 0.00011930		 0.00015046		-0.00004227
Si		5.82002835		16.53105273		3.59082533		-0.00011930		-0.00015046		 0.00004227
Si		5.82002835		1.51594756		3.59082533		-0.00011930		 0.00015046		 0.00004227
Si		2.23965684		16.53105273		1.51267935		 0.00011930		-0.00015046		-0.00004227
Si		6.90320687		10.53944771		1.51267935		-0.00022423		-0.00000807		-0.00012029
Si		1.15647833		7.50755259		3.59082533		 0.00022423		 0.00000807		 0.00012029
Si		1.15647833		10.53944771		3.59082533		 0.00022423		-0.00000807		 0.00012029
Si		6.90320687		7.50755259		1.51267935		-0.00022423		 0.00000807		-0.00012029
Si		1.67347855		3.08784187		4.10423835		 0.00000763		 0.00025114		-0.00011679
Si		6.38620665		14.95915936		0.99926633		-0.00000763		-0.00025114		 0.00011679
Si		6.38620665		3.08784187		0.99926633		-0.00000763		 0.00025114		 0.00011679
Si		1.67347855		14.95915936		4.10423835		 0.00000763		-0.00025114		-0.00011679
Si		6.33702858		12.11134295		4.10423835		-0.00069304		-0.00039257		-0.00016421
Si		1.72265569		5.93565828		0.99926633		 0.00069304		 0.00039257		 0.00016421
Si		1.72265569		12.11134295		0.99926633		 0.00069304		-0.00039257		 0.00016421
Si		6.33702858		5.93565828		4.10423835		-0.00069304		 0.00039257		-0.00016421
O		2.45904516		2.13856973		3.00290183		-0.00014559		-0.00002739		-0.00019073
O		5.60064004		15.90843150		2.10060191		 0.00014559		 0.00002739		 0.00019073
O		5.60064004		2.13856973		2.10060191		 0.00014559		-0.00002739		 0.00019073
O		2.45904516		15.90843150		3.00290183		-0.00014559		 0.00002739		-0.00019073
O		7.12259519		11.16206988		3.00290183		-0.00011399		 0.00009125		 0.00000765
O		0.93709094		6.88493135		2.10060191		 0.00011399		-0.00009125		-0.00000765
O		0.93709094		11.16206988		2.10060191		 0.00011399		 0.00009125		-0.00000765
O		7.12259519		6.88493135		3.00290183		-0.00011399		-0.00009125		 0.00000765
O		0.76668110		1.55204157		1.10797088		 0.00016466		-0.00020383		 0.00001284
O		7.29300410		16.49495779		3.99553286		-0.00016466		 0.00020383		-0.00001284
O		7.29300410		1.55204157		3.99553286		-0.00016466		-0.00020383		-0.00001284
O		0.76668110		16.49495779		1.10797088		 0.00016466		 0.00020383		 0.00001284
O		5.43023112		10.57554265		1.10797088		 0.00042312		-0.00020494		 0.00008232
O		2.62945407		7.47145764		3.99553286		-0.00042312		 0.00020494		-0.00008232
O		2.62945407		10.57554265		3.99553286		-0.00042312		-0.00020494		-0.00008232
O		5.43023112		7.47145764		1.10797088		 0.00042312		 0.00020494		 0.00008232
O		2.40268336		4.47565560		4.04860872		-0.00022836		-0.00042431		 0.00019601
O		5.65700277		13.57134377		1.05489408		 0.00022836		 0.00042431		-0.00019601
O		5.65700277		4.47565560		1.05489408		 0.00022836		-0.00042431		-0.00019601
O		2.40268336		13.57134377		4.04860872		-0.00022836		 0.00042431		 0.00019601
O		7.06623245		13.49915668		4.04860872		 0.00015502		 0.00019015		 0.00024101
O		0.99345274		4.54784362		1.05489408		-0.00015502		-0.00019015		-0.00024101
O		0.99345274		13.49915668		1.05489408		-0.00015502		 0.00019015		-0.00024101
O		7.06623245		4.54784362		4.04860872		 0.00015502		-0.00019015		 0.00024101
O		2.77302146		0.00000000		1.49073268		-0.00031672		0.00000000		-0.00003999
O		5.28666467		0.00000000		3.61277013		 0.00031672		0.00000000		 0.00003999
O		7.43657149		9.02350015		1.49073268		-0.00031860		-0.00000000		-0.00007658
O		0.62311464		9.02350015		3.61277013		 0.00031860		-0.00000000		 0.00007658
O		0.18765379		3.08964666		3.69493721		-0.00029034		 0.00005610		-0.00031625
O		7.87203234		14.95735363		1.40856746		 0.00029034		-0.00005610		 0.00031625
O		7.87203234		3.08964666		1.40856746		 0.00029034		 0.00005610		 0.00031625
O		0.18765379		14.95735363		3.69493721		-0.00029034		-0.00005610		-0.00031625
O		4.85120289		12.11314774		3.69493721		 0.00015137		 0.00016004		-0.00021509
O		3.20848231		5.93385442		1.40856746		-0.00015137		-0.00016004		 0.00021509
O		3.20848231		12.11314774		1.40856746		-0.00015137		 0.00016004		 0.00021509
O		4.85120289		5.93385442		3.69493721		 0.00015137		-0.00016004		-0.00021509
O		0.11579595		0.00000000		3.65002630		 0.00064927		0.00000000		 0.00033668
O		7.94389018		0.00000000		1.45347838		-0.00064927		0.00000000		-0.00033668
O		4.77934597		9.02350015		3.65002630		 0.00047727		0.00000000		 0.00022752
O		3.28034016		9.02350015		1.45347838		-0.00047727		0.00000000		-0.00022752
O		3.10611273		2.42371224		0.50626846		-0.00021344		-0.00031035		-0.00014457
O		4.95357340		15.62328899		4.59723621		 0.00021344		 0.00031035		 0.00014457
O		4.95357340		2.42371224		4.59723621		 0.00021344		-0.00031035		 0.00014457
O		3.10611273		15.62328899		0.50626846		-0.00021344		 0.00031035		-0.00014457
O		7.76966275		11.44721332		0.50626846		-0.00003835		-0.00015030		-0.00031340
O		0.29002338		6.59978791		4.59723621		 0.00003835		 0.00015030		 0.00031340
O		0.29002338		11.44721332		4.59723621		 0.00003835		-0.00015030		 0.00031340
O		7.76966275		6.59978791		0.50626846		-0.00003835		 0.00015030		-0.00031340
Ca		-0.63370743		5.00984660		2.55175187		0.00000000		-0.00008094		0.00000000
Ca		-0.63370743		13.03715370		2.55175187		0.00000000		 0.00008094		0.00000000
Ca		4.02984260		14.03334768		2.55175187		0.00000000		-0.00014596		0.00000000
Ca		4.02984260		4.01365262		2.55175187		0.00000000		 0.00014596		0.00000000
Mg		0.00000000		0.00000000		0.00000000		0.00000000		0.00000000		0.00000000
Mg		4.66355003		9.02350015		0.00000000		0.00000000		0.00000000		0.00000000
Mg		0.00000000		3.18709993		0.00000000		0.00000000		-0.00021237		0.00000000
Mg		0.00000000		14.85990129		0.00000000		0.00000000		 0.00021237		0.00000000
Mg		4.66355003		12.21060008		0.00000000		0.00000000		-0.00027745		0.00000000
Mg		4.66355003		5.83640021		0.00000000		0.00000000		 0.00027745		0.00000000
Mg		-0.63370743		1.58452693		2.55175187		0.00000000		-0.00045323		0.00000000
Mg		-0.63370743		16.46247430		2.55175187		0.00000000		 0.00045323		0.00000000
Mg		4.02984260		10.60802801		2.55175187		0.00000000		-0.00068347		0.00000000
Mg		4.02984260		7.43897415		2.55175187		0.00000000		 0.00068347		0.00000000
H		0.88018444		0.00000000		3.92969846		 0.00032386		0.00000000		 0.00004660
H		7.17950169		0.00000000		1.17380621		-0.00032386		0.00000000		-0.00004660
H		5.54373447		9.02350015		3.92969846		 0.00048895		-0.00000000		 0.00008858
H		2.51595166		9.02350015		1.17380621		-0.00048895		-0.00000000		-0.00008858
