# total energy = -44007.6783274 eV

CRYSTAL
PRIMVEC
		8.83619983		0.00000000		0.00000000
		0.00000000		18.04700151		0.00000000
		-1.20070701		0.00000000		5.10350626
PRIMECORD
   82 1
Si		2.12178100		1.51594816		1.51267877		-0.00021769		-0.00003066		 0.00010860
Si		5.51371093		16.53105246		3.59082484		 0.00021769		 0.00003066		-0.00010860
Si		5.51371093		1.51594816		3.59082484		 0.00021769		-0.00003066		-0.00010860
Si		2.12178100		16.53105246		1.51267877		-0.00021769		 0.00003066		 0.00010860
Si		6.53988091		10.53944803		1.51267877		-0.00026627		 0.00001090		 0.00008389
Si		1.09561102		7.50755259		3.59082484		 0.00026627		-0.00001090		-0.00008389
Si		1.09561102		10.53944803		3.59082484		 0.00026627		 0.00001090		-0.00008389
Si		6.53988091		7.50755259		1.51267877		-0.00026627		-0.00001090		 0.00008389
Si		1.58540158		3.08784184		4.10423810		-0.00026444		 0.00007141		 0.00006226
Si		6.05008947		14.95915879		0.99926640		 0.00026444		-0.00007141		-0.00006226
Si		6.05008947		3.08784184		0.99926640		 0.00026444		 0.00007141		-0.00006226
Si		1.58540158		14.95915879		4.10423810		-0.00026444		-0.00007141		 0.00006226
Si		6.00350061		12.11134259		4.10423810		-0.00037147		 0.00005963		 0.00000350
Si		1.63198956		5.93565803		0.99926640		 0.00037147		-0.00005963		-0.00000350
Si		1.63198956		12.11134259		0.99926640		 0.00037147		 0.00005963		-0.00000350
Si		6.00350061		5.93565803		4.10423810		-0.00037147		-0.00005963		 0.00000350
O		2.32962167		2.13856978		3.00290210		-0.00016907		 0.00003221		 0.00016048
O		5.30587026		15.90843085		2.10060239		 0.00016907		-0.00003221		-0.00016048
O		5.30587026		2.13856978		2.10060239		 0.00016907		 0.00003221		-0.00016048
O		2.32962167		15.90843085		3.00290210		-0.00016907		-0.00003221		 0.00016048
O		6.74772158		11.16206965		3.00290210		-0.00012961		 0.00000493		 0.00010588
O		0.88777035		6.88493098		2.10060239		 0.00012961		-0.00000493		-0.00010588
O		0.88777035		11.16206965		2.10060239		 0.00012961		 0.00000493		-0.00010588
O		6.74772158		6.88493098		3.00290210		-0.00012961		-0.00000493		 0.00010588
O		0.72633032		1.55204227		1.10797110		-0.00014928		-0.00001479		 0.00004320
O		6.90916161		16.49495747		3.99553251		 0.00014928		 0.00001479		-0.00004320
O		6.90916161		1.55204227		3.99553251		 0.00014928		-0.00001479		-0.00004320
O		0.72633032		16.49495747		1.10797110		-0.00014928		 0.00001479		 0.00004320
O		5.14443024		10.57554303		1.10797110		-0.00014386		 0.00000848		 0.00005287
O		2.49106169		7.47145760		3.99553251		 0.00014386		-0.00000848		-0.00005287
O		2.49106169		10.57554303		3.99553251		 0.00014386		 0.00000848		-0.00005287
O		5.14443024		7.47145760		1.10797110		-0.00014386		-0.00000848		 0.00005287
O		2.27622628		4.47565627		4.04860892		 0.00004813		 0.00009423		 0.00036300
O		5.35926565		13.57134347		1.05489381		-0.00004813		-0.00009423		-0.00036300
O		5.35926565		4.47565627		1.05489381		-0.00004813		 0.00009423		-0.00036300
O		2.27622628		13.57134347		4.04860892		 0.00004813		-0.00009423		 0.00036300
O		6.69432443		13.49915702		4.04860892		 0.00000631		 0.00011403		 0.00034953
O		0.94116573		4.54784360		1.05489381		-0.00000631		-0.00011403		-0.00034953
O		0.94116573		13.49915702		1.05489381		-0.00000631		 0.00011403		-0.00034953
O		6.69432443		4.54784360		4.04860892		 0.00000631		-0.00011403		 0.00034953
O		2.62707290		0.00000000		1.49073318		-0.00010822		0.00000000		 0.00010908
O		5.00841903		0.00000000		3.61276954		 0.00010822		0.00000000		-0.00010908
O		7.04517281		9.02349987		1.49073318		-0.00002433		-0.00000000		 0.00014419
O		0.59031912		9.02349987		3.61276954		 0.00002433		-0.00000000		-0.00014419
O		0.17777727		3.08964708		3.69493737		-0.00015591		-0.00038136		-0.00037698
O		7.45771466		14.95735355		1.40856713		 0.00015591		 0.00038136		 0.00037698
O		7.45771466		3.08964708		1.40856713		 0.00015591		-0.00038136		 0.00037698
O		0.17777727		14.95735355		3.69493737		-0.00015591		 0.00038136		-0.00037698
O		4.59587719		12.11314783		3.69493737		-0.00004951		-0.00034179		-0.00031453
O		3.03961474		5.93385368		1.40856713		 0.00004951		 0.00034179		 0.00031453
O		3.03961474		12.11314783		1.40856713		 0.00004951		-0.00034179		 0.00031453
O		4.59587719		5.93385368		3.69493737		-0.00004951		 0.00034179		-0.00031453
O		0.10970142		0.00000000		3.65002561		-0.00010225		-0.00000000		 0.00034798
O		7.52579051		0.00000000		1.45347800		 0.00010225		-0.00000000		-0.00034798
O		4.52780133		9.02349987		3.65002561		-0.00026526		-0.00000000		 0.00030718
O		3.10769060		9.02349987		1.45347800		 0.00026526		-0.00000000		-0.00030718
O		2.94263303		2.42371218		0.50626830		-0.00018010		-0.00027321		-0.00019326
O		4.69285801		15.62328845		4.59723619		 0.00018010		 0.00027321		 0.00019326
O		4.69285801		2.42371218		4.59723619		 0.00018010		-0.00027321		 0.00019326
O		2.94263303		15.62328845		0.50626830		-0.00018010		 0.00027321		-0.00019326
O		7.36073295		11.44721293		0.50626830		-0.00021789		-0.00032176		-0.00011297
O		0.27475898		6.59978769		4.59723619		 0.00021789		 0.00032176		 0.00011297
O		0.27475898		11.44721293		4.59723619		 0.00021789		-0.00032176		 0.00011297
O		7.36073295		6.59978769		0.50626830		-0.00021789		 0.00032176		-0.00011297
Ca		-0.60035439		5.00984696		2.55175225		0.00000000		 0.00002415		0.00000000
Ca		-0.60035439		13.03715366		2.55175225		0.00000000		-0.00002415		0.00000000
Ca		3.81774552		14.03334772		2.55175225		0.00000000		-0.00000938		0.00000000
Ca		3.81774552		4.01365291		2.55175225		0.00000000		 0.00000938		0.00000000
Mg		0.00000000		0.00000000		0.00000000		0.00000000		0.00000000		0.00000000
Mg		4.41809991		9.02349987		0.00000000		0.00000000		0.00000000		0.00000000
Mg		0.00000000		3.18709976		0.00000000		0.00000000		 0.00010847		0.00000000
Mg		0.00000000		14.85990087		0.00000000		0.00000000		-0.00010847		0.00000000
Mg		4.41809991		12.21059963		0.00000000		0.00000000		 0.00000232		0.00000000
Mg		4.41809991		5.83640012		0.00000000		0.00000000		-0.00000232		0.00000000
Mg		-0.60035439		1.58452679		2.55175225		0.00000000		 0.00026035		0.00000000
Mg		-0.60035439		16.46247383		2.55175225		0.00000000		-0.00026035		0.00000000
Mg		3.81774552		10.60802755		2.55175225		0.00000000		 0.00031081		0.00000000
Mg		3.81774552		7.43897396		2.55175225		0.00000000		-0.00031081		0.00000000
H		0.83385892		0.00000000		3.92969752		 0.00076232		-0.00000000		-0.00013188
H		6.80163301		0.00000000		1.17380609		-0.00076232		-0.00000000		 0.00013188
H		5.25195795		9.02349987		3.92969752		 0.00093198		0.00000000		-0.00008634
H		2.38353309		9.02349987		1.17380609		-0.00093198		0.00000000		 0.00008634
