# total energy = -44011.1141245 eV

CRYSTAL
PRIMVEC
		10.79979967		0.00000000		0.00000000
		0.00000000		18.04700524		0.00000000
		-1.46753078		0.00000000		5.10349933
PRIMECORD
   82 1
Si		2.59328678		1.51594844		1.51267934		 0.00010144		 0.00023381		 0.00023257
Si		6.73897996		16.53105248		3.59082539		-0.00010144		-0.00023381		-0.00023257
Si		6.73897996		1.51594844		3.59082539		-0.00010144		 0.00023381		-0.00023257
Si		2.59328678		16.53105248		1.51267934		 0.00010144		-0.00023381		 0.00023257
Si		7.99318769		10.53944782		1.51267934		 0.00006444		 0.00022578		 0.00020614
Si		1.33908012		7.50755310		3.59082539		-0.00006444		-0.00022578		-0.00020614
Si		1.33908012		10.53944782		3.59082539		-0.00006444		 0.00022578		-0.00020614
Si		7.99318769		7.50755310		1.51267934		 0.00006444		-0.00022578		 0.00020614
Si		1.93771302		3.08784200		4.10423815		 0.00006696		 0.00028471		 0.00008751
Si		7.39455480		14.95915892		0.99926550		-0.00006696		-0.00028471		-0.00008751
Si		7.39455480		3.08784200		0.99926550		-0.00006696		 0.00028471		-0.00008751
Si		1.93771302		14.95915892		4.10423815		 0.00006696		-0.00028471		 0.00008751
Si		7.33761285		12.11134246		4.10423815		 0.00009159		 0.00029866		 0.00009027
Si		1.99465496		5.93565738		0.99926550		-0.00009159		-0.00029866		-0.00009027
Si		1.99465496		12.11134246		0.99926550		-0.00009159		 0.00029866		-0.00009027
Si		7.33761285		5.93565738		4.10423815		 0.00009159		-0.00029866		 0.00009027
O		2.84731534		2.13856985		3.00290158		-0.00020989		-0.00008385		 0.00036902
O		6.48495139		15.90842999		2.10060208		 0.00020989		 0.00008385		-0.00036902
O		6.48495139		2.13856985		2.10060208		 0.00020989		-0.00008385		-0.00036902
O		2.84731534		15.90842999		3.00290158		-0.00020989		 0.00008385		 0.00036902
O		8.24721626		11.16206923		3.00290158		-0.00021788		-0.00007085		 0.00034710
O		1.08505155		6.88493061		2.10060208		 0.00021788		 0.00007085		-0.00034710
O		1.08505155		11.16206923		2.10060208		 0.00021788		-0.00007085		-0.00034710
O		8.24721626		6.88493061		3.00290158		-0.00021788		 0.00007085		 0.00034710
O		0.88773597		1.55204245		1.10797089		 0.00012449		-0.00003757		 0.00022760
O		8.44453076		16.49495739		3.99553277		-0.00012449		 0.00003757		-0.00022760
O		8.44453076		1.55204245		3.99553277		-0.00012449		-0.00003757		-0.00022760
O		0.88773597		16.49495739		1.10797089		 0.00012449		 0.00003757		 0.00022760
O		6.28763581		10.57554291		1.10797089		 0.00011380		-0.00000941		 0.00022506
O		3.04463092		7.47145801		3.99553277		-0.00011380		 0.00000941		-0.00022506
O		3.04463092		10.57554291		3.99553277		-0.00011380		-0.00000941		-0.00022506
O		6.28763581		7.47145801		1.10797089		 0.00011380		 0.00000941		 0.00022506
O		2.78205323		4.47565622		4.04860838		 0.00025168		 0.00032167		 0.00038418
O		6.55021350		13.57134362		1.05489419		-0.00025168		-0.00032167		-0.00038418
O		6.55021350		4.47565622		1.05489419		-0.00025168		 0.00032167		-0.00038418
O		2.78205323		13.57134362		4.04860838		 0.00025168		-0.00032167		 0.00038418
O		8.18195307		13.49915668		4.04860838		 0.00021699		 0.00034710		 0.00039933
O		1.15031366		4.54784424		1.05489419		-0.00021699		-0.00034710		-0.00039933
O		1.15031366		13.49915668		1.05489419		-0.00021699		 0.00034710		-0.00039933
O		8.18195307		4.54784424		4.04860838		 0.00021699		-0.00034710		 0.00039933
O		3.21086684		0.00000000		1.49073307		-0.00089069		0.00000000		 0.00073442
O		6.12140097		0.00000000		3.61276951		 0.00089069		0.00000000		-0.00073442
O		8.61076560		9.02349938		1.49073307		-0.00083589		0.00000000		 0.00074290
O		0.72150114		9.02349938		3.61276951		 0.00083589		0.00000000		-0.00074290
O		0.21728333		3.08964665		3.69493654		-0.00011435		-0.00035324		 0.00023185
O		9.11498448		14.95735319		1.40856711		 0.00011435		 0.00035324		-0.00023185
O		9.11498448		3.08964665		1.40856711		 0.00011435		-0.00035324		-0.00023185
O		0.21728333		14.95735319		3.69493654		-0.00011435		 0.00035324		 0.00023185
O		5.61718317		12.11314711		3.69493654		-0.00007335		-0.00033287		 0.00024585
O		3.71508465		5.93385381		1.40856711		 0.00007335		 0.00033287		-0.00024585
O		3.71508465		12.11314711		1.40856711		 0.00007335		-0.00033287		-0.00024585
O		5.61718317		5.93385381		3.69493654		-0.00007335		 0.00033287		 0.00024585
O		0.13407951		0.00000000		3.65002557		-0.00036930		0.00000000		 0.00002733
O		9.19818830		0.00000000		1.45347808		 0.00036930		0.00000000		-0.00002733
O		5.53397935		9.02349938		3.65002557		-0.00024951		0.00000000		 0.00010469
O		3.79828846		9.02349938		1.45347808		 0.00024951		0.00000000		-0.00010469
O		3.59655145		2.42371156		0.50626761		 0.00013159		-0.00007393		-0.00019253
O		5.73571529		15.62328828		4.59723604		-0.00013159		 0.00007393		 0.00019253
O		5.73571529		2.42371156		4.59723604		-0.00013159		-0.00007393		 0.00019253
O		3.59655145		15.62328828		0.50626761		 0.00013159		 0.00007393		-0.00019253
O		8.99645128		11.44721310		0.50626761		 0.00011228		-0.00006128		-0.00019002
O		0.33581545		6.59978782		4.59723604		-0.00011228		 0.00006128		 0.00019002
O		0.33581545		11.44721310		4.59723604		-0.00011228		-0.00006128		 0.00019002
O		8.99645128		6.59978782		0.50626761		 0.00011228		 0.00006128		-0.00019002
Ca		-0.73376647		5.00984671		2.55175183		0.00000000		 0.00023817		0.00000000
Ca		-0.73376647		13.03715313		2.55175183		0.00000000		-0.00023817		0.00000000
Ca		4.66613337		14.03334717		2.55175183		0.00000000		 0.00018770		0.00000000
Ca		4.66613337		4.01365267		2.55175183		0.00000000		-0.00018770		0.00000000
Mg		0.00000000		0.00000000		0.00000000		0.00000000		0.00000000		0.00000000
Mg		5.39989984		9.02349938		0.00000000		0.00000000		0.00000000		0.00000000
Mg		0.00000000		3.18709972		0.00000000		0.00000000		 0.00015325		0.00000000
Mg		0.00000000		14.85990012		0.00000000		0.00000000		-0.00015325		0.00000000
Mg		5.39989984		12.21059910		0.00000000		0.00000000		 0.00012510		0.00000000
Mg		5.39989984		5.83639966		0.00000000		0.00000000		-0.00012510		0.00000000
Mg		-0.73376647		1.58452717		2.55175183		0.00000000		 0.00005209		0.00000000
Mg		-0.73376647		16.46247375		2.55175183		0.00000000		-0.00005209		0.00000000
Mg		4.66613337		10.60802763		2.55175183		0.00000000		 0.00010245		0.00000000
Mg		4.66613337		7.43897329		2.55175183		0.00000000		-0.00010245		0.00000000
H		1.01915982		0.00000000		3.92969827		 0.00020199		0.00000000		 0.00014496
H		8.31310692		0.00000000		1.17380647		-0.00020199		0.00000000		-0.00014496
H		6.41905965		9.02349938		3.92969827		 0.00011761		0.00000000		 0.00012057
H		2.91320708		9.02349938		1.17380647		-0.00011761		0.00000000		-0.00012057
