# total energy = -18535.0892213 eV

CRYSTAL
PRIMVEC
		4.79901237		0.00000000		0.00000000
		-2.39950853		4.15606504		0.00000000
		0.00000000		0.00000000		13.82243977
PRIMECORD
   30 1
O		1.45722888		0.15260428		3.31460234		-0.00010768		 0.00018617		 0.00008600
O		0.94227777		4.00346217		10.50783837		 0.00010753		-0.00018620		-0.00008597
O		3.93823914		1.18569486		3.31460234		-0.00010768		-0.00018656		 0.00008593
O		-1.53873248		2.97037206		10.50783837		 0.00010784		 0.00018688		-0.00008539
O		1.80305147		2.81776731		3.31460234		 0.00021575		 0.00000020		 0.00008556
O		0.59645518		1.33829914		10.50783837		-0.00021536		-0.00000020		-0.00008593
O		3.85676037		1.53797757		7.92239685		-0.00011049		 0.00018945		-0.00002172
O		0.94218311		1.23290490		1.29253472		 0.00010015		-0.00017902		-0.00005143
O		1.53870530		2.57106346		7.92239685		-0.00010885		-0.00019037		-0.00002185
O		3.26019413		0.19950177		1.29253472		 0.00010513		 0.00017628		-0.00005121
O		1.80305382		0.04702589		7.92239685		 0.00021979		 0.00000089		-0.00002196
O		2.99614178		2.72365930		1.29253472		-0.00020524		 0.00000282		-0.00005170
O		1.45732307		2.92316154		12.52990599		-0.00010000		 0.00017902		 0.00005217
O		-1.45725372		2.61808981		5.90004479		 0.00011059		-0.00018973		 0.00002134
O		-0.86068748		3.95656468		12.52990599		-0.00010501		-0.00017624		 0.00005188
O		0.86080135		1.58500345		5.90004479		 0.00010872		 0.00019006		 0.00002101
O		-0.59663559		1.43240714		12.52990599		 0.00020489		-0.00000266		 0.00005237
O		0.59645284		4.10904103		5.90004479		-0.00021963		-0.00000094		 0.00002131
Mg		0.00000000		0.00000000		4.97635404		 0.00000059		 0.00000097		 0.00054977
Mg		0.00000000		0.00000000		8.84608714		-0.00000066		 0.00000065		-0.00055066
Mg		2.39950618		1.38535548		9.58425680		-0.00000023		-0.00000075		 0.00049795
Mg		2.39950618		1.38535548		13.45491725		-0.00000008		-0.00000044		-0.00088169
Mg		0.00000000		2.77071096		0.36752393		 0.00000018		-0.00000015		 0.00088280
Mg		0.00000000		2.77071096		4.23818438		-0.00000012		-0.00000009		-0.00049831
Si		0.00000000		0.00000000		2.18621258		-0.00000005		-0.00000004		-0.00059020
Si		0.00000000		0.00000000		11.63622907		-0.00000001		 0.00000009		 0.00058912
Si		2.39950618		1.38535595		6.79397148		-0.00000004		-0.00000018		-0.00057952
Si		2.39950618		1.38535548		2.42103836		 0.00000004		 0.00000009		 0.00057294
Si		0.00000000		2.77071096		11.40140329		-0.00000009		-0.00000004		-0.00057411
Si		0.00000000		2.77071143		7.02846830		 0.00000005		 0.00000007		 0.00058152
