# total energy = -18535.1088961 eV

CRYSTAL
PRIMVEC
		4.72873174		0.00000000		0.00000000
		-2.36436821		4.09520327		0.00000000
		0.00000000		0.00000000		13.51947581
PRIMECORD
   30 1
O		1.43894458		0.14493283		3.25551985		-0.00000136		 0.00007488		-0.00000900
O		0.92542176		3.95026950		10.26395502		 0.00000128		-0.00007497		 0.00000928
O		3.88374470		1.17369542		3.25551985		-0.00006407		-0.00003849		-0.00000879
O		-1.51937836		2.92150645		10.26395502		 0.00006420		 0.00003858		 0.00000917
O		1.77040973		2.77657315		3.25551985		 0.00006551		-0.00003624		-0.00000896
O		0.59395661		1.31862918		10.26395502		-0.00006547		 0.00003626		 0.00000915
O		3.80334184		1.50997450		7.76220500		 0.00000021		 0.00007702		-0.00002687
O		0.92535897		1.22024380		1.25086587		-0.00000775		-0.00006592		-0.00003646
O		1.51938586		2.53880363		7.76220500		-0.00006693		-0.00003850		-0.00002716
O		3.20929105		0.19126237		1.25086587		 0.00006101		 0.00002627		-0.00003624
O		1.77037178		0.04642514		7.76220500		 0.00006667		-0.00003860		-0.00002693
O		2.95844900		2.68369616		1.25086587		-0.00005322		 0.00003968		-0.00003642
O		1.43900737		2.87495853		12.26860900		 0.00000774		 0.00006594		 0.00003662
O		-1.43897551		2.58522830		5.75727034		-0.00000011		-0.00007697		 0.00002642
O		-0.84492471		3.90393996		12.26860900		-0.00006104		-0.00002642		 0.00003627
O		0.84498094		1.55639917		5.75727034		 0.00006685		 0.00003860		 0.00002680
O		-0.59408266		1.41150617		12.26860900		 0.00005318		-0.00003957		 0.00003668
O		0.59399456		4.04877766		5.75727081		-0.00006668		 0.00003846		 0.00002645
Mg		0.00000000		0.00000000		4.85199932		-0.00000005		 0.00000003		 0.00059279
Mg		0.00000000		0.00000000		8.66747556		 0.00000003		-0.00000002		-0.00059296
Mg		2.36436634		1.36506744		9.35926272		 0.00000005		-0.00000000		 0.00018036
Mg		2.36436634		1.36506744		13.17409230		-0.00000003		 0.00000011		-0.00051517
Mg		0.00000000		2.73013489		0.34538257		 0.00000005		-0.00000013		 0.00051551
Mg		0.00000000		2.73013489		4.16021262		-0.00000006		 0.00000002		-0.00018055
Si		0.00000000		0.00000000		2.13065771		-0.00000002		 0.00000007		-0.00025105
Si		0.00000000		0.00000000		11.38881763		-0.00000001		 0.00000001		 0.00025034
Si		2.36436634		1.36506744		6.63730209		 0.00000012		-0.00000005		-0.00022759
Si		2.36436634		1.36506744		2.37575847		-0.00000002		 0.00000003		 0.00022413
Si		0.00000000		2.73013489		11.14371640		 0.00000004		-0.00000009		-0.00022484
Si		0.00000000		2.73013489		6.88217278		-0.00000012		 0.00000003		 0.00022902
