# total energy = -18534.8431584 eV

CRYSTAL
PRIMVEC
		4.69845081		0.00000000		0.00000000
		-2.34922306		4.06897573		0.00000000
		0.00000000		0.00000000		13.39485632
PRIMECORD
   30 1
O		1.43099525		0.14182226		3.23082697		 0.00008987		-0.00004095		-0.00000660
O		0.91823016		3.92715487		10.16403170		-0.00008985		 0.00004099		 0.00000622
O		3.86013101		1.16836650		3.23082697		-0.00000937		 0.00009833		-0.00000651
O		-1.51090561		2.90061063		10.16403170		 0.00000934		-0.00009822		 0.00000629
O		1.75654948		2.75878790		3.23082697		-0.00008046		-0.00005735		-0.00000648
O		0.59267592		1.31018923		10.16403170		 0.00008053		 0.00005719		 0.00000623
O		3.78024549		1.49810955		7.69590607		 0.00009278		-0.00003643		 0.00000248
O		0.91819454		1.21457514		1.23408624		-0.00009702		 0.00004796		-0.00004823
O		1.51092669		2.52473391		7.69590607		-0.00001496		 0.00009869		 0.00000247
O		3.18750021		0.18789220		1.23408624		 0.00000700		-0.00010806		-0.00004809
O		1.75650356		0.04613461		7.69590607		-0.00007772		-0.00006239		 0.00000206
O		2.94198099		2.66650978		1.23408624		 0.00008999		 0.00006021		-0.00004794
O		1.43103086		2.85440199		12.16077242		 0.00009714		-0.00004783		 0.00004777
O		-1.43102008		2.57086805		5.69895213		-0.00009281		 0.00003624		-0.00000171
O		-0.83827481		3.88108493		12.16077289		-0.00000712		 0.00010799		 0.00004754
O		0.83829824		1.54424369		5.69895213		 0.00001513		-0.00009868		-0.00000170
O		-0.59275558		1.40246735		12.16077242		-0.00009005		-0.00006015		 0.00004773
O		0.59272184		4.02284299		5.69895213		 0.00007766		 0.00006247		-0.00000155
Mg		0.00000000		0.00000000		4.80248657		-0.00000010		 0.00000006		 0.00043211
Mg		0.00000000		0.00000000		8.59237210		-0.00000004		-0.00000005		-0.00043294
Mg		2.34922540		1.35632571		9.26813361		-0.00000000		 0.00000012		-0.00002072
Mg		2.34922540		1.35632571		13.05715504		-0.00000003		-0.00000004		-0.00024881
Mg		0.00000000		2.71265142		0.33770363		 0.00000009		-0.00000008		 0.00024954
Mg		0.00000000		2.71265142		4.12672505		 0.00000005		-0.00000000		 0.00002068
Si		0.00000000		0.00000000		2.10808196		-0.00000009		 0.00000003		 0.00016071
Si		0.00000000		0.00000000		11.28677670		-0.00000002		 0.00000005		-0.00015974
Si		2.34922493		1.35632571		6.57312498		 0.00000008		 0.00000009		 0.00019270
Si		2.34922540		1.35632571		2.35684765		-0.00000003		-0.00000003		-0.00020698
Si		0.00000000		2.71265142		11.03801101		 0.00000002		-0.00000003		 0.00020792
Si		0.00000000		2.71265189		6.82173415		 0.00000005		-0.00000012		-0.00019444
