# total energy = -18507.1769853 eV	

CRYSTAL	
PRIMVEC	
		7.02599785		-0.56207842		0.00000000	
		-0.49824063		6.22800086		0.00000000	
		-0.43440285		0.03474884		4.23980308	
PRIMCOORD
   30 1	
Mg		0.04221385		1.54365786		2.28101494		 0.00061207		-0.00020324		 0.00018245	
Mg		6.05114404		4.15701413		1.95879025		-0.00061207		 0.00020324		-0.00018245	
Mg		4.60607422		1.17854900		3.88790019		 0.00024864		-0.00011705		 0.00067480	
Mg		1.48728508		4.52212299		0.35190430		-0.00024864		 0.00011705		-0.00067480	
Mg		2.68164727		1.33250330		0.17807197		-0.00008222		-0.00004764		-0.00029786	
Mg		3.41171062		4.36816869		4.06173181		 0.00008222		 0.00004764		 0.00029786	
Si		0.00000000		0.00000000		0.00000000		0.00000000		0.00000000		0.00000000	
Si		-0.24912032		3.11399972		0.00000000		0.00000000		0.00000000		0.00000000	
Si		1.82737125		2.96025688		2.35309095		-0.00004876		 0.00039750		 0.00015370	
Si		4.26598665		2.74041511		1.88671283		 0.00004876		-0.00039750		-0.00015370	
Si		4.51311366		-0.34867329		1.88671283		-0.00009274		-0.00019780		 0.00023251	
Si		1.58024282		6.04934457		2.35309095		 0.00009274		 0.00019780		-0.00023251	
O		5.22476084		3.04737780		0.59357299		 0.00001284		 0.00019975		 0.00051278	
O		0.86859706		2.65329419		3.64623220		-0.00001284		-0.00019975		-0.00051278	
O		1.05792822		0.28665400		3.64623220		-0.00008126		-0.00035272		 0.00019772	
O		5.03542968		5.41401799		0.59357299		 0.00008126		 0.00035272		-0.00019772	
O		5.64349287		2.27749072		2.77707197		-0.00031981		-0.00019365		 0.00043642	
O		0.44986503		3.42318197		1.46273322		 0.00031981		 0.00019365		-0.00043642	
O		0.25953722		5.80227817		1.46273322		 0.00006948		-0.00045561		 0.00016290	
O		5.83382068		-0.10160478		2.77707197		-0.00006948		 0.00045561		-0.00016290	
O		1.83903784		1.39991182		1.81887575		 0.00019658		-0.00017506		 0.00012704	
O		4.25432076		4.30076016		2.42092803		-0.00019658		 0.00017506		-0.00012704	
O		2.83582500		3.20755165		1.03027223		-0.00031792		 0.00016656		-0.00005145	
O		3.25753289		2.49311964		3.20953226		 0.00031792		-0.00016656		 0.00005145	
O		3.45184660		0.06420008		3.20953226		 0.00009607		 0.00017010		 0.00007828	
O		2.64151200		5.63647191		1.03027223		-0.00009607		-0.00017010		-0.00007828	
O		4.26421608		1.20589768		1.32705908		-0.00011186		-0.00017164		-0.00008206	
O		1.82914182		4.49477360		2.91274612		 0.00011186		 0.00017164		 0.00008206	
O		6.69647660		1.01131684		0.49181668		 0.00033199		-0.00015589		 0.00042532	
O		-0.60311871		4.68935515		3.74798710		-0.00033199		 0.00015589		-0.00042532	
