# total energy = -66796.3860739 eV	

CRYSTAL	
PRIMVEC	
		18.34340566		-2.93495308		0.00000000	
		-1.07700337		6.73130823		0.00000000	
		0.00000000		0.00000000		10.88439195	
PRIMCOORD
   112 1	
Ca		13.09607009		4.45658816		2.52060884		 0.00007934		 0.00009245		 0.00004374	
Ca		4.17031919		-0.66023301		8.36379054		-0.00007934		-0.00009245		-0.00004374	
Ca		4.17031919		-0.66023301		2.52060884		-0.00007934		-0.00009245		 0.00004374	
Ca		13.09607009		4.45658816		8.36379054		 0.00007934		 0.00009245		-0.00004374	
Ca		12.80582014		1.22354018		2.92159085		 0.00041548		-0.00015082		 0.00013724	
Ca		4.46056915		2.57281683		7.96281039		-0.00041548		 0.00015082		-0.00013724	
Ca		4.46056915		2.57281683		2.92159085		-0.00041548		 0.00015082		 0.00013724	
Ca		12.80582014		1.22354018		7.96281039		 0.00041548		-0.00015082		-0.00013724	
Ca		7.38511184		-0.14418314		8.14849761		 0.00006868		-0.00025226		 0.00003633	
Ca		9.88127745		3.94054015		2.73590363		-0.00006868		 0.00025226		-0.00003633	
Ca		9.88127745		3.94054015		8.14849761		-0.00006868		 0.00025226		 0.00003633	
Ca		7.38511184		-0.14418314		2.73590363		 0.00006868		-0.00025226		-0.00003633	
Ca		0.90738314		4.17174217		8.17810332		 0.00024147		-0.00022904		-0.00010524	
Ca		16.35900800		-0.37538516		2.70629606		-0.00024147		 0.00022904		 0.00010524	
Ca		16.35900800		-0.37538516		8.17810332		-0.00024147		 0.00022904		-0.00010524	
Ca		0.90738314		4.17174217		2.70629606		 0.00024147		-0.00022904		 0.00010524	
Ca		5.23951106		4.42722581		0.00000000		 0.00054833		 0.00053713		0.00000000	
Ca		12.02688009		-0.63087066		0.00000000		-0.00054833		-0.00053713		0.00000000	
Ca		2.74144877		1.54742699		5.44219969		 0.00035023		-0.00025414		0.00000000	
Ca		14.52494237		2.24892816		5.44219969		-0.00035023		 0.00025414		0.00000000	
Ca		12.16521342		-0.81960261		5.44219969		-0.00012202		-0.00030776		0.00000000	
Ca		5.10117773		4.61595776		5.44219969		 0.00012202		 0.00030776		0.00000000	
Ca		14.44132117		2.09571117		0.00000000		 0.00064585		 0.00051509		0.00000000	
Ca		2.82506998		1.70064584		0.00000000		-0.00064585		-0.00051509		0.00000000	
Ca		8.63319557		1.89817757		0.00000000		0.00000000		0.00000000		0.00000000	
Ca		0.00000000		0.00000000		5.44219969		0.00000000		0.00000000		0.00000000	
Ca		8.63319557		1.89817757		5.44219969		0.00000000		0.00000000		0.00000000	
Ca		0.00000000		0.00000000		0.00000000		0.00000000		0.00000000		0.00000000	
Si		6.91438728		3.61222651		8.18267319		-0.00011801		 0.00027968		 0.00022781	
Si		10.35200386		0.18412864		2.70172619		 0.00011801		-0.00027968		-0.00022781	
Si		10.35200386		0.18412864		8.18267319		 0.00011801		-0.00027968		 0.00022781	
Si		6.91438728		3.61222651		2.70172619		-0.00011801		 0.00027968		-0.00022781	
Si		1.24621863		1.23964433		8.14392588		 0.00011080		 0.00010256		 0.00036572	
Si		16.02017437		2.55671082		2.74047350		-0.00011080		-0.00010256		-0.00036572	
Si		16.02017437		2.55671082		8.14392588		-0.00011080		-0.00010256		 0.00036572	
Si		1.24621863		1.23964433		2.74047350		 0.00011080		 0.00010256		-0.00036572	
Si		11.38475937		3.00256673		5.44219969		-0.00002911		-0.00007895		-0.00000000	
Si		5.88163178		0.79378842		5.44219969		 0.00002911		 0.00007895		-0.00000000	
Si		15.08456392		-0.86889034		0.00000000		 0.00050396		-0.00013856		0.00000000	
Si		2.18182537		4.66524735		0.00000000		-0.00050396		 0.00013856		0.00000000	
Si		5.89879294		0.91107248		0.00000000		 0.00008889		 0.00008921		0.00000000	
Si		11.36759820		2.88528453		0.00000000		-0.00008889		-0.00008921		0.00000000	
Si		2.12524628		4.79432948		5.44219969		-0.00017253		-0.00020550		-0.00000000	
Si		15.14114301		-0.99797247		5.44219969		 0.00017253		 0.00020550		-0.00000000	
Mg		9.17169912		-1.46747282		5.44219969		0.00000000		0.00000000		0.00000000	
Mg		-0.53850354		3.36565040		0.00000000		0.00000000		0.00000000		0.00000000	
Mg		9.17169912		-1.46747282		0.00000000		0.00000000		0.00000000		0.00000000	
Mg		-0.53850354		3.36565040		5.44219969		0.00000000		0.00000000		0.00000000	
O		5.01894977		0.88262596		1.32789671		-0.00003799		-0.00027571		 0.00004073	
O		12.24744323		2.91372919		9.55650453		 0.00003799		 0.00027571		-0.00004073	
O		12.24744323		2.91372919		1.32789671		 0.00003799		 0.00027571		 0.00004073	
O		5.01894977		0.88262596		9.55650453		-0.00003799		-0.00027571		-0.00004073	
O		3.06066540		4.47543981		4.11430484		 0.00001558		-0.00022103		 0.00011709	
O		14.20572575		-0.67908466		6.77009640		-0.00001558		 0.00022103		-0.00011709	
O		14.20572575		-0.67908466		4.11430484		-0.00001558		 0.00022103		 0.00011709	
O		3.06066540		4.47543981		6.77009640		 0.00001558		-0.00022103		-0.00011709	
O		11.86902449		3.65903425		4.13933696		-0.00011547		 0.00003033		-0.00004349	
O		5.39736666		0.13732090		6.74506243		 0.00011547		-0.00003033		 0.00004349	
O		5.39736666		0.13732090		4.13933696		 0.00011547		-0.00003033		-0.00004349	
O		11.86902449		3.65903425		6.74506243		-0.00011547		 0.00003033		 0.00004349	
O		14.35926598		-0.01889251		1.30286273		-0.00034916		-0.00043202		-0.00057646	
O		2.90712517		3.81524952		9.58153665		 0.00034916		 0.00043202		 0.00057646	
O		2.90712517		3.81524952		1.30286273		 0.00034916		 0.00043202		-0.00057646	
O		14.35926598		-0.01889251		9.58153665		-0.00034916		-0.00043202		 0.00057646	
O		7.88491824		3.86031848		9.36711497		 0.00017608		-0.00020295		-0.00000945	
O		9.38147105		-0.06396333		1.51728442		-0.00017608		 0.00020295		 0.00000945	
O		9.38147105		-0.06396333		9.36711497		-0.00017608		 0.00020295		-0.00000945	
O		7.88491824		3.86031848		1.51728442		 0.00017608		-0.00020295		 0.00000945	
O		0.14321343		1.81950335		6.95948596		 0.00011936		-0.00009893		 0.00044151	
O		17.12317771		1.97685366		3.92491527		-0.00011936		 0.00009893		-0.00044151	
O		17.12317771		1.97685366		6.95948596		-0.00011936		 0.00009893		 0.00044151	
O		0.14321343		1.81950335		3.92491527		 0.00011936		-0.00009893		-0.00044151	
O		5.34464410		4.45828607		8.55731528		-0.00004322		-0.00021940		 0.00013813	
O		11.92174705		-0.66192907		2.32708410		 0.00004322		 0.00021940		-0.00013813	
O		11.92174705		-0.66192907		8.55731528		 0.00004322		 0.00021940		 0.00013813	
O		5.34464410		4.45828607		2.32708410		-0.00004322		-0.00021940		-0.00013813	
O		2.62059055		1.61464496		7.76928565		-0.00018351		 0.00001132		-0.00027896	
O		14.64580059		2.18171019		3.11511559		 0.00018351		-0.00001132		 0.00027896	
O		14.64580059		2.18171019		7.76928565		 0.00018351		-0.00001132		-0.00027896	
O		2.62059055		1.61464496		3.11511559		-0.00018351		 0.00001132		 0.00027896	
O		6.36303051		2.23451263		0.00000000		 0.00037342		-0.00019823		0.00000000	
O		10.90336249		1.56184251		0.00000000		-0.00037342		 0.00019823		0.00000000	
O		1.20198934		6.33976876		5.44219969		 0.00025377		 0.00008331		0.00000000	
O		16.06440181		-2.54341175		5.44219969		-0.00025377		-0.00008331		0.00000000	
O		7.02111234		2.08724205		7.82697191		-0.00037984		 0.00039160		-0.00008986	
O		10.24527880		1.70911310		3.05742748		 0.00037984		-0.00039160		 0.00008986	
O		10.24527880		1.70911310		7.82697191		 0.00037984		-0.00039160		-0.00008986	
O		7.02111234		2.08724205		3.05742748		-0.00037984		 0.00039160		 0.00008986	
O		0.55769143		6.40087871		8.49962717		-0.00013591		 0.00010084		 0.00001386	
O		16.70869972		-2.60452356		2.38477222		 0.00013591		-0.00010084		-0.00001386	
O		16.70869972		-2.60452356		8.49962717		 0.00013591		-0.00010084		 0.00001386	
O		0.55769143		6.40087871		2.38477222		-0.00013591		 0.00010084		-0.00001386	
O		7.18445736		-0.46410010		0.00000000		-0.00009759		-0.00011611		-0.00000000	
O		10.08193564		4.26045525		0.00000000		 0.00009759		 0.00011611		-0.00000000	
O		1.22364421		3.76911983		5.44219969		 0.00066609		-0.00004075		0.00000000	
O		16.04274508		0.02723717		5.44219969		-0.00066609		 0.00004075		0.00000000	
O		9.74190010		3.50351560		5.44219969		-0.00008096		-0.00005295		0.00000000	
O		7.52449104		0.29283955		5.44219969		 0.00008096		 0.00005295		0.00000000	
O		16.64923195		-0.88114725		0.00000000		-0.00002346		 0.00043087		0.00000000	
O		0.61715734		4.67750240		0.00000000		 0.00002346		-0.00043087		0.00000000	
O		12.18924982		1.41185230		5.44219969		-0.00014741		 0.00006001		0.00000000	
O		5.07714132		2.38450471		5.44219969		 0.00014741		-0.00006001		0.00000000	
O		14.76020341		-2.27898900		0.00000000		-0.00032360		 0.00015581		0.00000000	
O		2.50618774		6.07534414		0.00000000		 0.00032360		-0.00015581		0.00000000	
O		7.24420749		4.35702814		6.85281849		 0.00033282		 0.00005274		-0.00000126	
O		10.02218365		-0.56067113		4.03158275		-0.00033282		-0.00005274		 0.00000126	
O		10.02218365		-0.56067113		6.85281849		-0.00033282		-0.00005274		-0.00000126	
O		7.24420749		4.35702814		4.03158275		 0.00033282		 0.00005274		 0.00000126	
O		0.65446866		2.13189674		9.47378244		-0.00035327		 0.00025944		 0.00005947	
O		16.61192249		1.66445841		1.41061880		 0.00035327		-0.00025944		-0.00005947	
O		16.61192249		1.66445841		9.47378244		 0.00035327		-0.00025944		 0.00005947	
O		0.65446866		2.13189674		1.41061880		-0.00035327		 0.00025944		-0.00005947	
