# total energy = -66796.3860555 eV	

CRYSTAL	
PRIMVEC	
		18.34340566		2.93495308		0.00000000	
		1.07700337		6.73130823		0.00000000	
		0.00000000		0.00000000		10.88439195	
PRIMCOORD
   112 1	
Ca		15.24778261		8.99160534		2.52060884		-0.00041051		-0.00015218		-0.00014515	
Ca		4.17262456		0.67463739		8.36379054		 0.00041051		 0.00015218		 0.00014515	
Ca		4.17262456		0.67463739		2.52060884		 0.00041051		 0.00015218		-0.00014515	
Ca		15.24778261		8.99160534		8.36379054		-0.00041051		-0.00015218		 0.00014515	
Ca		13.88052371		5.49335438		2.92159085		-0.00007994		 0.00009505		-0.00004416	
Ca		5.53988347		4.17288835		7.96281039		 0.00007994		-0.00009505		 0.00004416	
Ca		5.53988347		4.17288835		2.92159085		 0.00007994		-0.00009505		-0.00004416	
Ca		13.88052371		5.49335438		7.96281039		-0.00007994		 0.00009505		 0.00004416	
Ca		7.72581243		2.27356460		8.14849761		-0.00024210		-0.00022694		 0.00010685	
Ca		11.69459475		7.39267999		2.73590363		 0.00024210		 0.00022694		-0.00010685	
Ca		11.69459475		7.39267999		8.14849761		 0.00024210		 0.00022694		 0.00010685	
Ca		7.72581243		2.27356460		2.73590363		-0.00024210		-0.00022694		-0.00010685	
Ca		2.32509082		4.68893637		8.17810332		-0.00007432		-0.00024947		-0.00002491	
Ca		17.09531636		4.97730636		2.70629606		 0.00007432		 0.00024947		 0.00002491	
Ca		17.09531636		4.97730636		8.17810332		 0.00007432		 0.00024947		-0.00002491	
Ca		2.32509082		4.68893637		2.70629606		-0.00007432		-0.00024947		 0.00002491	
Ca		6.96875574		6.38054835		0.00000000		-0.00034647		-0.00025592		-0.00000000	
Ca		12.45165143		3.28569438		0.00000000		 0.00034647		 0.00025592		-0.00000000	
Ca		3.39368451		2.52904824		5.44219969		-0.00055534		 0.00054091		-0.00000000	
Ca		16.02672266		7.13719449		5.44219969		 0.00055534		-0.00054091		-0.00000000	
Ca		12.53527450		3.13247553		5.44219969		-0.00064354		 0.00051334		0.00000000	
Ca		6.88513268		6.53376720		5.44219969		 0.00064354		-0.00051334		0.00000000	
Ca		15.88838933		6.94846440		0.00000000		 0.00013161		-0.00030265		0.00000000	
Ca		3.53201785		2.71778019		0.00000000		-0.00013161		 0.00030265		0.00000000	
Ca		9.71020452		4.83312137		0.00000000		0.00000000		0.00000000		0.00000000	
Ca		0.00000000		0.00000000		5.44219969		0.00000000		0.00000000		0.00000000	
Ca		9.71020452		4.83312137		5.44219969		0.00000000		0.00000000		0.00000000	
Ca		0.00000000		0.00000000		0.00000000		0.00000000		0.00000000		0.00000000	
Si		8.46398589		6.07276755		8.18267319		-0.00010586		 0.00009237		-0.00035370	
Si		10.95642129		3.59347704		2.70172619		 0.00010586		-0.00009237		 0.00035370	
Si		10.95642129		3.59347704		8.18267319		 0.00010586		-0.00009237		-0.00035370	
Si		8.46398589		6.07276755		2.70172619		-0.00010586		 0.00009237		 0.00035370	
Si		1.71880829		1.71404893		8.14392588		 0.00006103		 0.00024081		-0.00018528	
Si		17.70159889		7.95219566		2.74047350		-0.00006103		-0.00024081		 0.00018528	
Si		17.70159889		7.95219566		8.14392588		-0.00006103		-0.00024081		-0.00018528	
Si		1.71880829		1.71404893		2.74047350		 0.00006103		 0.00024081		 0.00018528	
Si		12.96903697		6.89917482		5.44219969		-0.00050427		-0.00014443		0.00000000	
Si		6.45136835		2.76706977		5.44219969		 0.00050427		 0.00014443		0.00000000	
Si		15.59183630		4.03933295		0.00000000		 0.00009926		-0.00004858		-0.00000000	
Si		3.82857088		5.62691164		0.00000000		-0.00009926		 0.00004858		-0.00000000	
Si		6.50794929		2.89615005		0.00000000		 0.00018997		-0.00019099		0.00000000	
Si		12.91245789		6.77009269		0.00000000		-0.00018997		 0.00019099		0.00000000	
Si		3.81141157		5.74419384		5.44219969		-0.00013972		 0.00010767		0.00000000	
Si		15.60899560		3.92205075		5.44219969		 0.00013972		-0.00010767		0.00000000	
Mg		9.17169912		1.46747282		5.44219969		0.00000000		0.00000000		0.00000000	
Mg		0.53850354		3.36565040		0.00000000		0.00000000		0.00000000		0.00000000	
Mg		9.17169912		1.46747282		0.00000000		0.00000000		0.00000000		0.00000000	
Mg		0.53850354		3.36565040		5.44219969		0.00000000		0.00000000		0.00000000	
O		5.57253018		2.57726223		1.32789671		-0.00001542		-0.00021996		-0.00011474	
O		13.84787700		7.08898236		9.55650453		 0.00001542		 0.00021996		 0.00011474	
O		13.84787700		7.08898236		1.32789671		 0.00001542		 0.00021996		-0.00011474	
O		5.57253018		2.57726223		9.55650453		-0.00001542		-0.00021996		 0.00011474	
O		4.69125474		5.71574733		4.11430484		 0.00004602		-0.00026750		-0.00004778	
O		14.72915058		3.95049541		6.77009640		-0.00004602		 0.00026750		 0.00004778	
O		14.72915058		3.95049541		4.11430484		-0.00004602		 0.00026750		-0.00004778	
O		4.69125474		5.71574733		6.77009640		 0.00004602		-0.00026750		 0.00004778	
O		13.69433677		7.74917264		4.13933696		 0.00035100		-0.00042908		 0.00057009	
O		5.72607041		1.91707009		6.74506243		-0.00035100		 0.00042908		-0.00057009	
O		5.72607041		1.91707009		4.13933696		-0.00035100		 0.00042908		 0.00057009	
O		13.69433677		7.74917264		6.74506243		 0.00035100		-0.00042908		-0.00057009	
O		15.10757118		4.69580046		1.30286273		 0.00010231		 0.00003457		 0.00005565	
O		4.31283600		4.97044227		9.58153665		-0.00010231		-0.00003457		-0.00005565	
O		4.31283600		4.97044227		1.30286273		-0.00010231		-0.00003457		 0.00005565	
O		15.10757118		4.69580046		9.58153665		 0.00010231		 0.00003457		-0.00005565	
O		9.56698923		6.65262471		9.36711497		-0.00012336		-0.00009372		-0.00044104	
O		9.85341609		3.01361988		1.51728442		 0.00012336		 0.00009372		 0.00044104	
O		9.85341609		3.01361988		9.36711497		 0.00012336		 0.00009372		-0.00044104	
O		9.56698923		6.65262471		1.51728442		-0.00012336		-0.00009372		 0.00044104	
O		0.74827547		1.96214090		6.95948596		-0.00016794		-0.00020169		 0.00001568	
O		18.67213170		7.70410369		3.92491527		 0.00016794		 0.00020169		-0.00001568	
O		18.67213170		7.70410369		6.95948596		 0.00016794		 0.00020169		 0.00001568	
O		0.74827547		1.96214090		3.92491527		-0.00016794		-0.00020169		-0.00001568	
O		7.08961211		6.44776632		8.55731528		 0.00018106		 0.00000914		 0.00027753	
O		12.33079321		3.21847641		2.32708410		-0.00018106		-0.00000914		-0.00027753	
O		12.33079321		3.21847641		8.55731528		-0.00018106		-0.00000914		 0.00027753	
O		7.08961211		6.44776632		2.32708410		 0.00018106		 0.00000914		-0.00027753	
O		3.28855148		2.56010850		7.76928565		 0.00009763		-0.00020649		-0.00017888	
O		16.13185570		7.10613609		3.11511559		-0.00009763		 0.00020649		 0.00017888	
O		16.13185570		7.10613609		7.76928565		-0.00009763		 0.00020649		-0.00017888	
O		3.28855148		2.56010850		3.11511559		 0.00009763		-0.00020649		 0.00017888	
O		7.43120623		4.44158933		0.00000000		-0.00026930		 0.00006635		0.00000000	
O		11.98920094		5.22465341		0.00000000		 0.00026930		-0.00006635		0.00000000	
O		3.34717400		7.06763400		5.44219969		-0.00033786		-0.00022214		0.00000000	
O		16.07323318		2.59860873		5.44219969		 0.00033786		 0.00022214		0.00000000	
O		8.07550414		4.50270113		7.82697191		 0.00013059		 0.00010739		-0.00001979	
O		11.34490303		5.16354346		3.05742748		-0.00013059		-0.00010739		 0.00001979	
O		11.34490303		5.16354346		7.82697191		-0.00013059		-0.00010739		-0.00001979	
O		8.07550414		4.50270113		3.05742748		 0.00013059		 0.00010739		 0.00001979	
O		2.68909032		6.92036341		8.49962717		 0.00038040		 0.00041157		 0.00007236	
O		16.73131500		2.74587932		2.38477222		-0.00038040		-0.00041157		-0.00007236	
O		16.73131500		2.74587932		8.49962717		-0.00038040		-0.00041157		 0.00007236	
O		2.68909032		6.92036341		2.38477222		 0.00038040		 0.00041157		-0.00007236	
O		7.40955136		1.87094226		0.00000000		-0.00065544		-0.00004527		0.00000000	
O		12.01085582		7.79530233		0.00000000		 0.00065544		 0.00004527		0.00000000	
O		2.52574716		4.36902126		5.44219969		 0.00010108		-0.00012329		0.00000000	
O		16.89466002		5.29722147		5.44219969		-0.00010108		 0.00012329		0.00000000	
O		11.40437080		6.88691976		5.44219969		 0.00003316		 0.00041993		-0.00000000	
O		8.01603638		2.77932483		5.44219969		-0.00003316		-0.00041993		-0.00000000	
O		17.23469370		4.54028182		0.00000000		 0.00004093		-0.00006219		-0.00000000	
O		2.18571347		5.12596277		0.00000000		-0.00004093		 0.00006219		-0.00000000	
O		13.29339934		5.48907616		5.44219969		 0.00031649		 0.00015575		0.00000000	
O		6.12700783		4.17716657		5.44219969		-0.00031649		-0.00015575		0.00000000	
O		14.78734398		2.44861851		0.00000000		 0.00012432		 0.00003649		-0.00000000	
O		4.63306320		7.21762422		0.00000000		-0.00012432		-0.00003649		-0.00000000	
O		9.05573586		6.96501811		6.85281849		 0.00035236		 0.00026363		-0.00006677	
O		10.36467132		2.70122462		4.03158275		-0.00035236		-0.00026363		 0.00006677	
O		10.36467132		2.70122462		6.85281849		-0.00035236		-0.00026363		-0.00006677	
O		9.05573586		6.96501811		4.03158275		 0.00035236		 0.00026363		 0.00006677	
O		1.38898622		2.45885056		9.47378244		-0.00032337		 0.00006675		 0.00000061	
O		18.03141910		7.20739403		1.41061880		 0.00032337		-0.00006675		-0.00000061	
O		18.03141910		7.20739403		9.47378244		 0.00032337		-0.00006675		 0.00000061	
O		1.38898622		2.45885056		1.41061880		-0.00032337		 0.00006675		-0.00000061	
