# total energy = -14249.5350297 eV	

CRYSTAL	
PRIMVEC	
		7.34349996		0.00000000		0.00000000	
		0.00000000		7.73000305		0.00000000	
		0.00000000		0.00000000		5.01000004	
PRIMCOORD
   24 1	
Ca		2.42335499		1.31410022		2.55510031		 0.00024112		 0.00037664		-0.00073303	
Ca		4.92014497		6.41589988		2.55510031		-0.00024112		-0.00037664		-0.00073303	
Ca		1.24839499		5.17910028		2.45489972		-0.00024112		 0.00037664		 0.00073303	
Ca		6.09510496		2.55089983		2.45489972		 0.00024112		-0.00037664		 0.00073303	
Si		1.02808999		2.78280022		4.75950003		-0.00023213		 0.00022170		-0.00076522	
Si		6.31540996		4.94719989		4.75950003		 0.00023213		-0.00022170		-0.00076522	
Si		2.64365998		6.64780027		0.25050000		 0.00023213		 0.00022170		 0.00076522	
Si		4.69983997		1.08219984		0.25050000		-0.00023213		-0.00022170		 0.00076522	
Mg		0.00000000		0.00000000		0.00000000		0.00000000		0.00000000		-0.00094214	
Mg		3.67174998		3.86500005		0.00000000		0.00000000		0.00000000		 0.00094214	
O		3.67174998		0.00000000		0.95189971		0.00000000		0.00000000		 0.00013715	
O		0.00000000		3.86500005		4.05810032		0.00000000		0.00000000		-0.00013715	
O		1.02808999		2.78280022		1.30260030		-0.00064735		 0.00025473		-0.00028231	
O		6.31540996		4.94719989		1.30260030		 0.00064735		-0.00025473		-0.00028231	
O		2.64365998		6.64780027		3.70739973		 0.00064735		 0.00025473		 0.00028231	
O		4.69983997		1.08219984		3.70739973		-0.00064735		-0.00025473		 0.00028231	
O		0.58748000		1.39140011		4.05810032		-0.00032239		-0.00003927		 0.00043080	
O		6.75601996		6.33860000		4.05810032		 0.00032239		 0.00003927		 0.00043080	
O		1.32182999		7.11160031		0.95189971		-0.00025773		 0.00079199		-0.00007093	
O		6.02166996		0.61839980		0.95189971		 0.00025773		-0.00079199		-0.00007093	
O		3.08426998		5.25640016		0.95189971		 0.00032239		-0.00003927		-0.00043080	
O		4.25922997		2.47359995		0.95189971		-0.00032239		 0.00003927		-0.00043080	
O		2.34991999		3.24660025		4.05810032		 0.00025773		 0.00079199		 0.00007093	
O		4.99357997		4.48339986		4.05810032		-0.00025773		-0.00079199		 0.00007093	
