# total energy = -14250.3858189 eV	

CRYSTAL	
PRIMVEC	
		8.11649978		0.00000000		0.00000000	
		0.00000000		7.73000018		0.00000000	
		0.00000000		0.00000000		5.00999877	
PRIMCOORD
   24 1	
Ca		2.67844493		1.31410027		2.55510011		-0.00012827		-0.00004359		 0.00078817	
Ca		5.43805486		6.41589991		2.55510011		 0.00012827		 0.00004359		 0.00078817	
Ca		1.37980496		5.17909955		2.45490029		 0.00012827		-0.00004359		-0.00078817	
Ca		6.73669482		2.55089982		2.45490029		-0.00012827		 0.00004359		-0.00078817	
Si		1.13630997		2.78279958		4.75950005		 0.00003578		 0.00001486		-0.00020540	
Si		6.98018981		4.94719979		4.75950005		-0.00003578		-0.00001486		-0.00020540	
Si		2.92193992		6.64779967		0.25050034		-0.00003578		 0.00001486		 0.00020540	
Si		5.19455986		1.08219970		0.25050034		 0.00003578		-0.00001486		 0.00020540	
Mg		0.00000000		0.00000000		0.00000000		0.00000000		0.00000000		-0.00000263	
Mg		4.05824989		3.86500009		0.00000000		0.00000000		0.00000000		 0.00000263	
O		4.05824989		0.00000000		0.95189985		0.00000000		0.00000000		-0.00080507	
O		0.00000000		3.86500009		4.05809974		0.00000000		0.00000000		 0.00080507	
O		1.13630997		2.78279958		1.30260001		 0.00015634		-0.00012463		-0.00080704	
O		6.98018981		4.94719979		1.30260001		-0.00015634		 0.00012463		-0.00080704	
O		2.92193992		6.64779967		3.70739958		-0.00015634		-0.00012463		 0.00080704	
O		5.19455986		1.08219970		3.70739958		 0.00015634		 0.00012463		 0.00080704	
O		0.64931998		1.39140020		4.05809974		 0.00029037		-0.00018950		 0.00048519	
O		7.46717980		6.33859999		4.05809974		-0.00029037		 0.00018950		 0.00048519	
O		1.46096996		7.11160000		0.95189985		-0.00025280		 0.00006341		-0.00032094	
O		6.65552982		0.61840018		0.95189985		 0.00025280		-0.00006341		-0.00032094	
O		3.40892991		5.25639947		0.95189985		-0.00029037		-0.00018950		-0.00048519	
O		4.70756988		2.47359990		0.95189985		 0.00029037		 0.00018950		-0.00048519	
O		2.59727993		3.24659991		4.05809974		 0.00025280		 0.00006341		 0.00032094	
O		5.51921985		4.48340027		4.05809974		-0.00025280		-0.00006341		 0.00032094	
