# total energy = -14250.4366212 eV	

CRYSTAL	
PRIMVEC	
		7.92325009		0.00000000		0.00000000	
		0.00000000		7.73000202		0.00000000	
		0.00000000		0.00000000		5.00999781	
PRIMCOORD
   24 1	
Ca		2.61467332		1.31410034		2.55509999		-0.00001995		-0.00062833		-0.00065029	
Ca		5.30857677		6.41590009		2.55509999		 0.00001995		 0.00062833		-0.00065029	
Ca		1.34695331		5.17909977		2.45490019		 0.00001995		-0.00062833		 0.00065029	
Ca		6.57629678		2.55089988		2.45490019		-0.00001995		 0.00062833		 0.00065029	
Si		1.10925501		2.78279994		4.75950029		 0.00001764		 0.00006583		 0.00065913	
Si		6.81399508		4.94719971		4.75950029		-0.00001764		-0.00006583		 0.00065913	
Si		2.85237003		6.64780015		0.25049989		-0.00001764		 0.00006583		-0.00065913	
Si		5.07088006		1.08220028		0.25049989		 0.00001764		-0.00006583		-0.00065913	
Mg		0.00000000		0.00000000		0.00000000		0.00000000		0.00000000		 0.00016147	
Mg		3.96162505		3.86500022		0.00000000		0.00000000		0.00000000		-0.00016147	
O		3.96162505		0.00000000		0.95190006		0.00000000		0.00000000		 0.00055766	
O		0.00000000		3.86500022		4.05810012		0.00000000		0.00000000		-0.00055766	
O		1.10925501		2.78279994		1.30259975		 0.00019733		 0.00000236		 0.00080606	
O		6.81399508		4.94719971		1.30259975		-0.00019733		-0.00000236		 0.00080606	
O		2.85237003		6.64780015		3.70740044		-0.00019733		 0.00000236		-0.00080606	
O		5.07088006		1.08220028		3.70740044		 0.00019733		-0.00000236		-0.00080606	
O		0.63386001		1.39140036		4.05810012		 0.00001592		 0.00009947		-0.00014890	
O		7.28939008		6.33860007		4.05810012		-0.00001592		-0.00009947		-0.00014890	
O		1.42618502		7.11160028		0.95190006		 0.00014499		-0.00009261		 0.00043227	
O		6.49706508		0.61840016		0.95190006		-0.00014499		 0.00009261		 0.00043227	
O		3.32776504		5.25639979		0.95190006		-0.00001592		 0.00009947		 0.00014890	
O		4.59548505		2.47359985		0.95190006		 0.00001592		-0.00009947		 0.00014890	
O		2.53544003		3.24660006		4.05810012		-0.00014499		-0.00009261		-0.00043227	
O		5.38781006		4.48340038		4.05810012		 0.00014499		 0.00009261		-0.00043227	
