# total energy = -18390.8139123 eV	

CRYSTAL	
PRIMVEC	
		4.92003897		0.00897516		-0.00000481	
		-0.02271717		11.41232943		0.00000000	
		0.00000000		-0.00000963		6.50257049	
PRIMCOORD
   28 1	
Mg		0.00465851		-0.00113490		-0.00017767		-0.00006236		 0.00007897		 0.00001677	
Mg		2.44238792		5.71041877		-0.00056191		 0.00040859		-0.00001735		 0.00000702	
Mg		0.00468211		-0.00117390		3.25150096		-0.00006665		 0.00008301		-0.00001529	
Mg		2.44246448		5.71046547		3.25171667		 0.00040620		-0.00002496		 0.00000600	
Ca		4.82845093		3.18383769		1.62564599		-0.00026744		 0.00017967		-0.00000100	
Ca		0.06990465		8.23430682		4.87692161		-0.00016634		-0.00000554		-0.00000024	
Ca		2.37187128		2.53183954		4.87694424		-0.00031615		 0.00001449		-0.00000208	
Ca		2.53015092		8.88588125		1.62564118		-0.00006566		-0.00003271		-0.00000094	
Si		2.01215373		0.93951238		1.62566766		 0.00011200		-0.00008478		-0.00000113	
Si		2.89365499		10.48162031		4.87694327		-0.00039069		 0.00002996		-0.00000106	
Si		4.45590140		4.77945831		4.87691101		-0.00013572		-0.00002202		-0.00000002	
Si		0.43193340		6.64436838		1.62562673		 0.00034490		-0.00014254		-0.00000014	
O		3.65085222		0.90257267		1.62565081		 0.00002023		-0.00016296		 0.00000230	
O		1.25516354		10.52126028		4.87692979		-0.00028667		-0.00024722		 0.00000270	
O		1.17399372		4.81587800		4.87690716		 0.00050526		-0.00012522		 0.00000306	
O		3.71364271		6.61018621		1.62562818		 0.00008522		-0.00002155		 0.00000166	
O		1.20230110		5.15249704		1.62563107		 0.00028939		-0.00011247		-0.00000306	
O		3.68319843		6.27017164		4.87691246		 0.00029643		 0.00003928		-0.00000311	
O		-1.23816418		0.55471590		4.87695002		 0.00013627		-0.00024563		-0.00000288	
O		6.14532351		10.86568347		1.62564407		-0.00039687		 0.00034724		-0.00000169	
O		1.33658952		1.68035980		0.29961095		-0.00021207		 0.00007955		-0.00009691	
O		3.56824512		9.73975790		6.20302309		-0.00001931		 0.00011153		 0.00019636	
O		3.78477277		4.03515998		6.20363171		-0.00000395		-0.00009331		-0.00001338	
O		1.10576614		7.38700072		0.29949924		 0.00000792		 0.00013235		 0.00002166	
O		3.56822345		9.73973575		3.55086442		-0.00001388		 0.00011645		-0.00019887	
O		1.33657074		1.68030394		2.95174507		-0.00020703		 0.00008669		 0.00009270	
O		1.10578106		7.38701420		2.95174363		 0.00000523		 0.00013157		-0.00002139	
O		3.78477855		4.03516046		3.55019080		-0.00000684		-0.00009247		 0.00001294	
