# total energy = -18361.0167689 eV	

CRYSTAL	
PRIMVEC	
		5.55745345		-0.00004815		0.00000000	
		-0.00038038		11.43334209		0.00000000	
		0.00000000		0.00000000		7.06855926	
PRIMCOORD
   28 1	
Mg		0.00000000		0.00005056		0.00003033		-0.00000237		-0.00000975		-0.00001984	
Mg		2.77853749		5.71664601		-0.00000867		 0.00000009		-0.00000651		 0.00000664	
Mg		0.00000530		0.00005056		3.53424785		-0.00000266		-0.00000987		 0.00001986	
Mg		2.77853749		5.71664649		3.53429071		 0.00000047		-0.00000672		-0.00000648	
Ca		5.04596180		3.36881072		1.76714150		-0.00043395		-0.00036235		 0.00000002	
Ca		0.51102796		8.06439559		5.30142113		 0.00044208		 0.00038421		-0.00000055	
Ca		2.26731212		2.34817185		5.30142017		-0.00043969		 0.00034162		 0.00000010	
Ca		3.28973205		9.08516061		1.76713958		 0.00044683		-0.00034995		 0.00000027	
Si		1.80710841		1.00164562		1.76713958		-0.00000385		-0.00029260		-0.00000009	
Si		3.75001570		10.43164543		5.30141969		-0.00000740		 0.00028612		-0.00000005	
Si		4.58575039		4.71534081		5.30142065		 0.00000854		 0.00028062		 0.00000001	
Si		0.97137516		6.71796276		1.76714054		-0.00002473		-0.00028670		-0.00000009	
O		3.52954264		1.43162895		1.76714246		 0.00005846		 0.00046165		 0.00000019	
O		2.02756943		10.00170833		5.30142210		-0.00006446		-0.00046296		-0.00000016	
O		0.75068109		4.28531463		5.30141921		 0.00007998		-0.00051523		-0.00000015	
O		4.80645360		7.14793598		1.76713909		-0.00009032		 0.00053027		 0.00000024	
O		3.92395323		5.90105183		1.76714054		-0.00026982		-0.00007270		-0.00000002	
O		1.63310250		5.53224404		5.30142113		 0.00027648		 0.00008087		-0.00000020	
O		1.14581442		-0.18440727		5.30141921		-0.00031320		 0.00002473		 0.00000009	
O		4.41121724		11.61772288		1.76713909		 0.00032787		-0.00004023		 0.00000026	
O		1.12302887		1.77414444		0.43019663		 0.00008256		 0.00015999		 0.00001072	
O		4.43405912		9.65909798		6.63834963		-0.00008334		-0.00014771		-0.00000043	
O		3.90163859		3.94277121		6.63827355		 0.00009147		-0.00016184		 0.00002151	
O		1.65541136		7.49054247		0.43025971		-0.00008404		 0.00016224		-0.00001084	
O		4.43405815		9.65909846		3.96448927		-0.00008380		-0.00014730		 0.00000136	
O		1.12302791		1.77414540		3.10408155		 0.00008275		 0.00015860		-0.00001115	
O		1.65541136		7.49054247		3.10402137		-0.00008563		 0.00016176		 0.00001069	
O		3.90163811		3.94277121		3.96456823		 0.00009168		-0.00016027		-0.00002190	
