# total energy = -24713.9504198 eV

CRYSTAL
PRIMVEC
		9.61326956		0.00000000		0.00000000
		0.00000000		8.82246278		-0.70579664
		-1.62743040		-0.39296162		4.91196737
PRIMECORD
   40 1
Mg		2.03778627		5.67865542		0.61307954		-0.00007144		 0.00014475		-0.00035772
Mg		5.94805577		2.75084670		3.59309312		 0.00007144		-0.00014475		 0.00035772
Mg		6.76177001		1.24282560		1.27346790		-0.00030550		-0.00020958		 0.00042497
Mg		1.22407203		7.18667556		2.93270476		 0.00030550		 0.00020958		-0.00042497
Mg		2.11556628		0.02195190		1.05146289		 0.00039898		 0.00004675		 0.00024754
Mg		5.87027576		8.40755022		3.15470976		-0.00039898		-0.00004675		-0.00024754
Mg		6.68399000		4.40630267		1.03454258		-0.00045378		-0.00020475		-0.00040482
Mg		1.30185204		4.02319849		3.17163008		 0.00045378		 0.00020475		 0.00040482
Si		-0.04067759		2.87904445		1.22358656		-0.00022682		-0.00003791		-0.00000909
Si		8.02651963		5.55045670		2.98258610		 0.00022682		 0.00003791		 0.00000909
Si		8.84023387		7.32792044		0.40012158		 0.00004562		-0.00000743		 0.00013615
Si		-0.85439087		1.10158167		3.80605108		-0.00004562		 0.00000743		-0.00013615
Si		4.94609063		7.30168775		0.51984236		 0.00012216		-0.00006341		-0.00014059
Si		3.03975044		1.12781533		3.68633222		-0.00012216		 0.00006341		 0.00014059
Si		3.85346468		2.87175279		1.10654981		 0.00012137		 0.00031606		 0.00023185
Si		4.13237736		5.55774837		3.09962285		-0.00012137		-0.00031606		-0.00023185
O		8.04909831		2.93374011		0.68235276		-0.00031724		 0.00021635		 0.00015972
O		-0.06325724		5.49576297		3.52381990		 0.00031724		-0.00021635		-0.00015972
O		0.75045700		7.29616493		0.93952118		-0.00014257		 0.00006911		-0.00004495
O		7.23538503		1.13333815		3.26665148		 0.00014257		-0.00006911		 0.00004495
O		0.68054066		4.29046277		1.22243778		 0.00030273		-0.00038945		 0.00005100
O		7.30530042		4.13903935		2.98373488		-0.00030273		 0.00038945		-0.00005100
O		8.11901466		-0.06512509		0.87980066		-0.00034980		 0.00009009		-0.00001813
O		-0.13317262		8.49462625		3.32637200		 0.00034980		-0.00009009		 0.00001813
O		0.00731378		2.23854307		2.80877914		-0.00022007		 0.00008358		 0.00002498
O		7.97852730		6.19096001		1.39739351		 0.00022007		-0.00008358		-0.00002498
O		7.16481402		6.54147328		3.80961856		 0.00007082		 0.00008251		 0.00005547
O		0.82102802		1.88802884		0.39655410		-0.00007082		-0.00008251		-0.00005547
O		3.39361874		7.34200100		0.03783591		 0.00017180		-0.00010849		 0.00010078
O		4.59222234		1.08750112		4.16833675		-0.00017180		 0.00010849		-0.00010078
O		5.40593658		2.83496761		1.58827267		-0.00012502		-0.00016661		 0.00067924
O		2.57990450		5.59453354		2.61789999		 0.00012502		 0.00016661		-0.00067924
O		5.47592118		8.45761709		1.26877085		-0.00029457		-0.00001138		 0.00009059
O		2.50992086		-0.02811497		2.93740181		 0.00029457		 0.00001138		-0.00009059
O		3.32363510		4.16317346		0.16183170		-0.00042176		 0.00006115		 0.00008714
O		4.66220790		4.26632769		4.04434096		 0.00042176		-0.00006115		-0.00008714
O		5.07876145		5.95544645		1.71150710		-0.00018344		 0.00026198		 0.00017627
O		2.90707963		2.47405567		2.49466556		 0.00018344		-0.00026198		-0.00017627
O		3.72079387		1.70006346		0.11631768		 0.00002411		 0.00030324		 0.00011115
O		4.26504817		6.72943866		4.08985498		-0.00002411		-0.00030324		-0.00011115
