# total energy = -24705.5404616 eV

CRYSTAL
PRIMVEC
		9.61326956		0.00000000		0.00000000
		0.00000000		8.82246278		-1.41159328
		-1.62743040		-0.78591363		4.91196737
PRIMECORD
   40 1
Mg		2.03778627		5.59271568		0.15191273		-0.00014503		 0.00002689		-0.00020178
Mg		5.94805577		2.44382867		3.34846425		 0.00014503		-0.00002689		 0.00020178
Mg		6.76177001		1.13228742		1.16519941		 0.00063750		 0.00004963		 0.00015112
Mg		1.22407203		6.90425789		2.33517757		-0.00063750		-0.00004963		-0.00015112
Mg		2.11556628		-0.06284867		1.04292343		 0.00020221		-0.00052324		 0.00036806
Mg		5.87027576		8.09939398		2.45745259		-0.00020221		 0.00052324		-0.00036806
Mg		6.68399000		4.29462435		0.67310479		-0.00005621		 0.00063483		-0.00004319
Mg		1.30185204		3.74191999		2.82727123		 0.00005621		-0.00063483		 0.00004319
Si		-0.04067759		2.76198271		0.98389891		 0.00005663		-0.00042842		-0.00007874
Si		8.02651963		5.27456164		2.51647807		-0.00005663		 0.00042842		 0.00007874
Si		8.84023387		7.24850330		-0.19246535		 0.00019157		 0.00026599		 0.00003573
Si		-0.85439087		0.78804104		3.69284041		-0.00019157		-0.00026599		-0.00003573
Si		4.94609063		7.21280058		-0.07140352		 0.00002973		 0.00014899		-0.00032391
Si		3.03975044		0.82374376		3.57178050		-0.00002973		-0.00014899		 0.00032391
Si		3.85346468		2.76416108		0.86820225		-0.00019236		-0.00019120		 0.00002888
Si		4.13237736		5.27238423		2.63217377		 0.00019236		 0.00019120		-0.00002888
O		8.04909831		2.85990251		0.44174704		 0.00052856		-0.00000577		-0.00044204
O		-0.06325724		5.17664183		3.05862898		-0.00052856		 0.00000577		 0.00044204
O		0.75045700		7.17352268		0.34601714		-0.00032538		 0.00045059		-0.00030558
O		7.23538503		0.86302166		3.15435984		 0.00032538		-0.00045059		 0.00030558
O		0.68054066		4.16440204		0.86911551		-0.00036483		-0.00017396		 0.00010081
O		7.30530042		3.87214326		2.63125955		 0.00036483		 0.00017396		-0.00010081
O		8.11901466		-0.13554326		0.87937768		-0.00012561		 0.00022903		-0.00049404
O		-0.13317262		8.17208760		2.62099834		 0.00012561		-0.00022903		 0.00049404
O		0.00731378		1.99797388		2.61044970		-0.00013977		-0.00068676		 0.00011025
O		7.97852730		6.03857047		0.88992632		 0.00013977		 0.00068676		-0.00011025
O		7.16481402		6.19260581		3.25839176		-0.00023681		 0.00056077		-0.00032462
O		0.82102802		1.84393854		0.24198426		 0.00023681		-0.00056077		 0.00032462
O		3.39361874		7.29166400		-0.55355129		 0.00015496		 0.00035327		-0.00006650
O		4.59222234		0.74488131		4.05392635		-0.00015496		-0.00035327		 0.00006650
O		5.40593658		2.68882669		1.34978380		-0.00025721		-0.00018339		 0.00011081
O		2.57990450		5.34771766		2.15059222		 0.00025721		 0.00018339		-0.00011081
O		5.47592118		8.30098328		0.57963113		-0.00054024		-0.00016466		-0.00005220
O		2.50992086		-0.26443894		2.92074489		 0.00054024		 0.00016466		 0.00005220
O		3.32363510		4.12332742		-0.17440970		-0.00046647		-0.00005286		 0.00015030
O		4.66220790		3.91321692		3.67478572		 0.00046647		 0.00005286		-0.00015030
O		5.07876145		5.77928328		1.22097848		 0.00011845		 0.00085349		 0.00019977
O		2.90707963		2.25726106		2.27939754		-0.00011845		-0.00085349		-0.00019977
O		3.72079387		1.67974774		-0.02131166		-0.00069381		 0.00050599		-0.00040984
O		4.26504817		6.35679661		3.52168768		 0.00069381		-0.00050599		 0.00040984
