# total energy = -24713.9504198 eV

CRYSTAL
PRIMVEC
		9.61326956		0.00000000		0.00000000
		0.00000000		8.82246278		0.70579664
		-1.62743040		0.39296162		4.91196737
PRIMECORD
   40 1
Mg		2.03778627		5.85053491		1.53541507		 0.00030551		-0.00020957		-0.00042497
Mg		5.94805577		3.36488179		4.08235086		-0.00030551		 0.00020957		 0.00042497
Mg		6.76177001		1.46390388		1.49000583		 0.00007144		 0.00014475		 0.00035772
Mg		1.22407203		7.75151282		4.12776010		-0.00007144		-0.00014475		-0.00035772
Mg		2.11556628		0.19155209		1.06854279		 0.00045378		-0.00020475		 0.00040482
Mg		5.87027576		9.02386558		4.54922314		-0.00045378		 0.00020475		-0.00040482
Mg		6.68399000		4.62966025		1.75742007		-0.00039896		 0.00004676		-0.00024755
Mg		1.30185204		4.58575645		3.86034586		 0.00039896		-0.00004676		 0.00024755
Si		-0.04067759		3.11316987		1.70296378		-0.00004563		-0.00000743		-0.00013615
Si		8.02651963		6.10224876		3.91480215		 0.00004563		 0.00000743		 0.00013615
Si		8.84023387		7.48675377		1.58529640		 0.00022684		-0.00003791		 0.00000908
Si		-0.85439087		1.72866294		4.03246953		-0.00022684		 0.00003791		-0.00000908
Si		4.94609063		7.47946210		1.70233412		-0.00012139		 0.00031606		-0.00023185
Si		3.03975044		1.73595556		3.91543278		 0.00012139		-0.00031606		 0.00023185
Si		3.85346468		3.08693718		1.58324493		-0.00012214		-0.00006343		 0.00014059
Si		4.13237736		6.12848049		4.03452196		 0.00012214		 0.00006343		-0.00014059
O		8.04909831		3.08141243		1.16356515		 0.00014259		 0.00006911		 0.00004494
O		-0.06325724		6.13400332		4.45420078		-0.00014259		-0.00006911		-0.00004494
O		0.75045700		7.54144846		2.12653021		 0.00031723		 0.00021635		-0.00015972
O		7.23538503		1.67396920		3.49123572		-0.00031723		-0.00021635		 0.00015972
O		0.68054066		4.54258422		1.92908230		 0.00034979		 0.00009009		 0.00001812
O		7.30530042		4.67283345		3.68868459		-0.00034979		-0.00009009		-0.00001812
O		8.11901466		0.07571123		0.88064759		-0.00030272		-0.00038946		-0.00005102
O		-0.13317262		9.13970548		4.73711738		 0.00030272		 0.00038946		 0.00005102
O		0.00731378		2.71967952		3.20543707		-0.00007081		 0.00008252		-0.00005547
O		7.97852730		6.49573815		2.41232983		 0.00007081		-0.00008252		 0.00005547
O		7.16481402		7.23920823		4.91207408		 0.00022009		 0.00008358		-0.00002498
O		0.82102802		1.97620847		0.70569281		-0.00022009		-0.00008358		 0.00002498
O		3.39361874		7.44267693		1.22061029		 0.00012504		-0.00016661		-0.00067925
O		4.59222234		1.77274074		4.39715564		-0.00012504		 0.00016661		 0.00067925
O		5.40593658		3.12724946		2.06524946		-0.00017181		-0.00010849		-0.00010077
O		2.57990450		6.08816725		3.55251551		 0.00017181		 0.00010849		 0.00010077
O		5.47592118		8.77088278		2.64705126		 0.00042175		 0.00006116		-0.00008714
O		2.50992086		0.44453489		2.97071563		-0.00042175		-0.00006116		 0.00008714
O		3.32363510		4.24286555		0.83431452		 0.00029455		-0.00001134		-0.00009058
O		4.66220790		4.97255212		4.78345046		-0.00029455		 0.00001134		 0.00009058
O		5.07876145		6.30777278		2.69256529		-0.00002411		 0.00030323		-0.00011114
O		2.90707963		2.90764489		2.92520161		 0.00002411		-0.00030323		 0.00011114
O		3.72079387		1.74069587		0.39157923		 0.00018344		 0.00026195		-0.00017626
O		4.26504817		7.47472180		5.22618670		-0.00018344		-0.00026195		 0.00017626
