# total energy = -117600.19171 eV	

CRYSTAL	
PRIMVEC	
		10.58800046		0.42351959		0.00000000	
		0.56388040		14.09699933		0.00000000	
		-2.45392984		-0.09815507		9.76951875	
PRIMCOORD
   156 1	
Si		8.18386024		0.34128783		0.72441051		 0.00003026		 0.00007064		-0.00005067	
Si		0.51408548		14.08107495		9.04511141		-0.00003026		-0.00007064		 0.00005067	
Si		1.46022919		7.10956498		4.16034992		 0.00014763		 0.00000869		-0.00013028	
Si		7.23771654		7.31279674		5.60917095		-0.00014763		-0.00000869		 0.00013028	
Si		3.72186070		2.81795239		6.58055438		-0.00013379		-0.00024384		 0.00005439	
Si		4.97608503		11.60441146		3.18896649		 0.00013379		 0.00024384		-0.00005439	
Si		3.68104734		9.85354237		8.07372692		-0.00045047		-0.00039053		 0.00000226	
Si		5.01690050		4.56882147		1.69579289		 0.00045047		 0.00039053		-0.00000226	
Si		1.28260591		1.81764696		4.16914287		 0.00030816		 0.00014336		-0.00016162	
Si		7.41533981		12.60471583		5.60037800		-0.00030816		-0.00014336		 0.00016162	
Si		8.50190154		9.14364054		0.71561651		 0.00022810		-0.00013395		-0.00000200	
Si		0.19604630		5.27872224		9.05390330		-0.00022810		 0.00013395		 0.00000200	
Si		6.93478474		2.01319310		5.59793551		-0.00005543		-0.00014161		-0.00000663	
Si		1.76316204		12.40916968		4.17158535		 0.00005543		 0.00014161		 0.00000663	
Si		0.39334086		8.78875744		9.05634579		 0.00025637		 0.00038671		 0.00009698	
Si		8.30460487		5.63360534		0.71317508		-0.00025637		-0.00038671		-0.00009698	
Mg		4.06703319		0.16268120		4.88476043		0.00000000		0.00000000		0.00000000	
Mg		5.57594043		7.26026052		0.00000000		0.00000000		0.00000000		0.00000000	
Mg		4.49412803		2.63589661		3.48175959		 0.00001431		 0.00004478		-0.00009769	
Mg		4.20381769		11.78646618		6.28776128		-0.00001431		-0.00004478		 0.00009769	
Mg		5.34565059		9.70717973		1.40300085		 0.00013226		-0.00012581		 0.00007099	
Mg		3.35229619		4.71518305		8.36652002		-0.00013226		 0.00012581		-0.00007099	
Mg		5.29400023		0.21175980		0.00000000		0.00000000		0.00000000		0.00000000	
Mg		4.34897339		7.21118086		4.88476043		0.00000000		0.00000000		0.00000000	
Mg		6.19305748		0.28276778		2.86383721		 0.00023936		-0.00031031		-0.00008585	
Mg		2.50488931		14.13959500		6.90568366		-0.00023936		 0.00031031		 0.00008585	
Mg		3.45272421		7.21037659		2.02092322		 0.00026210		-0.00007734		-0.00035129	
Mg		5.24522151		7.21198619		7.74859764		-0.00026210		 0.00007734		 0.00035129	
Mg		0.42190575		0.02180223		1.48887461		-0.00007574		-0.00016675		 0.00013322	
Mg		8.27603997		14.40056056		8.28064625		 0.00007574		 0.00016675		-0.00013322	
Mg		9.22146206		7.41100692		3.39588476		-0.00012923		-0.00002616		 0.00002939	
Mg		-0.52351633		7.01135587		6.37363611		 0.00012923		 0.00002616		-0.00002939	
Mg		-0.86819080		-0.02980150		6.20091052		-0.00000805		 0.00000158		-0.00017776	
Mg		9.56613652		14.45216429		3.56861035		 0.00000805		-0.00000158		 0.00017776	
Mg		8.05762453		7.36445346		8.45337079		 0.00006741		 0.00012622		-0.00008520	
Mg		0.64032225		7.05790933		1.31615008		-0.00006741		-0.00012622		 0.00008520	
Mg		3.19560306		0.16680958		2.10484301		 0.00039408		 0.00009909		 0.00034417	
Mg		5.50234373		14.25555214		7.66467786		-0.00039408		-0.00009909		-0.00034417	
Mg		6.45049546		7.33422916		2.77991743		-0.00002622		-0.00036013		 0.00019316	
Mg		2.24745238		7.08813363		6.98960450		 0.00002622		 0.00036013		-0.00019316	
Mg		6.66696645		2.65849039		1.20761047		-0.00027270		 0.00012228		 0.00012562	
Mg		2.03098139		11.76387345		8.56191040		 0.00027270		-0.00012228		-0.00012562	
Mg		3.16765911		9.55574032		3.67714996		-0.00036589		-0.00026919		-0.00004223	
Mg		5.53028767		4.86662352		6.09237091		 0.00036589		 0.00026919		 0.00004223	
Mg		-1.54034589		2.37368703		9.47360181		-0.00003025		 0.00003934		 0.00021400	
Mg		10.23829268		12.04867470		0.29591906		 0.00003025		-0.00003934		-0.00021400	
Mg		8.92452150		9.82950535		5.18067949		-0.00015582		-0.00005679		 0.00024948	
Mg		-0.22657578		4.59285850		4.58884244		 0.00015582		 0.00005679		-0.00024948	
Mg		0.56885438		2.51674569		7.34638754		 0.00039175		-0.00007120		 0.00002636	
Mg		8.12909240		11.90561709		2.42313438		-0.00039175		 0.00007120		-0.00002636	
Mg		6.82002500		9.80401555		7.30789482		-0.00020511		 0.00017181		 0.00004459	
Mg		1.87792178		4.61834724		2.46162605		 0.00020511		-0.00017181		-0.00004459	
Mg		6.10325878		2.72024660		8.74235446		-0.00015907		 0.00002728		-0.00022786	
Mg		2.59468695		11.70211512		1.02716747		 0.00015907		-0.00002728		 0.00022786	
Mg		1.28418690		9.56470706		5.91192791		 0.00000942		 0.00001745		 0.00013908	
Mg		7.41375882		4.85765573		3.85759296		-0.00000942		-0.00001745		-0.00013908	
Mg		3.70034457		2.52054347		0.44060534		-0.00019762		-0.00032223		-0.00027229	
Mg		4.99760115		11.90182038		9.32891553		 0.00019762		 0.00032223		 0.00027229	
Mg		6.13273391		9.65506101		4.44415510		-0.00014650		 0.00011288		-0.00013648	
Mg		2.56521181		4.76730178		5.32536577		 0.00014650		-0.00011288		 0.00013648	
Mg		9.50467171		2.87840099		1.94237585		 0.00013651		-0.00015493		-0.00003775	
Mg		-0.80672599		11.54396179		7.82714501		-0.00013651		 0.00015493		 0.00003775	
Mg		0.33847765		9.54897554		2.94238352		-0.00008566		-0.00045382		-0.00020318	
Mg		8.35946807		4.87338725		6.82713629		 0.00008566		 0.00045382		 0.00020318	
O		3.67630860		1.20545091		6.54167064		 0.00029358		 0.00026785		-0.00002880	
O		5.02163818		13.21691187		3.22785022		-0.00029358		-0.00026785		 0.00002880	
O		3.59753765		8.23952348		8.11260960		 0.00037207		 0.00044622		 0.00012125	
O		5.10040808		6.18284142		1.65691127		-0.00037207		-0.00044622		-0.00012125	
O		5.77167307		1.45393594		4.50667955		-0.00042141		 0.00001068		 0.00009549	
O		2.92627265		12.96842684		5.26284132		 0.00042141		-0.00001068		-0.00009549	
O		3.96930304		8.41906366		0.37808088		-0.00014465		 0.00008516		-0.00013854	
O		4.72864374		6.00329912		9.39144104		 0.00014465		-0.00008516		 0.00013854	
O		7.02273117		3.65877569		5.59402754		 0.00012025		-0.00016536		-0.00020734	
O		1.67521561		10.76358710		4.17549333		-0.00012025		 0.00016536		 0.00020734	
O		0.43697075		10.43256830		9.06025376		 0.00003340		 0.00043240		 0.00022929	
O		8.26097497		3.98979448		0.70926710		-0.00003340		-0.00043240		-0.00022929	
O		6.55011285		1.46959222		7.12100387		-0.00002661		 0.00004019		 0.00001700	
O		2.14783393		12.95277056		2.64851700		 0.00002661		-0.00004019		-0.00001700	
O		0.73568939		8.27423751		7.53327743		 0.00025407		 0.00021372		 0.00011891	
O		7.96225845		6.14812634		2.23624344		-0.00025407		-0.00021372		-0.00011891	
O		1.37260170		3.46795663		4.15106953		-0.00038426		 0.00016765		 0.00007378	
O		7.32534402		10.95440616		5.61845133		 0.00038426		-0.00016765		-0.00007378	
O		8.54385296		10.79203013		0.73369090		-0.00019978		-0.00012909		-0.00012211	
O		0.15409382		3.63033265		9.03582997		 0.00019978		 0.00012909		 0.00012211	
O		2.78269158		1.34282245		3.75344982		-0.00004421		 0.00012827		 0.00015133	
O		5.91525414		13.07954140		6.01607104		 0.00004421		-0.00012827		-0.00015133	
O		6.95895952		8.54709442		1.13130955		 0.00003107		 0.00014997		-0.00001381	
O		1.73898621		5.87526837		8.63821026		-0.00003107		-0.00014997		 0.00001381	
O		0.84962049		1.25986907		5.68195278		 0.00010262		 0.00019591		-0.00011875	
O		7.84832523		13.16249266		4.08756703		-0.00010262		-0.00019591		 0.00011875	
O		6.43764619		8.52061279		8.97232852		 0.00014095		-0.00007382		 0.00016042	
O		2.26029953		5.90175000		0.79719341		-0.00014095		 0.00007382		-0.00016042	
O		0.12492811		1.24495560		3.09791529		 0.00029075		 0.00014151		-0.00023681	
O		8.57301761		13.17740719		6.67160558		-0.00029075		-0.00014151		 0.00023681	
O		9.61740117		8.66187747		1.78684515		 0.00029266		-0.00005199		 0.00000571	
O		-0.91945439		5.76048532		7.98267466		-0.00029266		 0.00005199		-0.00000571	
O		4.11955034		3.56094593		5.17100704		-0.00000078		-0.00019589		 0.00009909	
O		4.57839644		10.86141686		4.59851383		 0.00000078		 0.00019589		-0.00009909	
O		3.34161813		10.56705124		9.48327427		 0.00006281		-0.00002406		-0.00003055	
O		5.35632865		3.85531154		0.28624660		-0.00006281		 0.00002406		 0.00003055	
O		4.78943674		3.54974016		7.61534177		-0.00005048		 0.00020720		-0.00016426	
O		3.90851005		10.87262262		2.15417910		 0.00005048		-0.00020720		 0.00016426	
O		2.66868631		10.50213305		7.03893953		-0.00028278		-0.00008789		-0.00030738	
O		6.02926047		3.92022974		2.73058134		 0.00028278		 0.00008789		 0.00030738	
O		4.92178237		1.39460738		1.68133401		-0.00000026		-0.00007234		 0.00030369	
O		3.77616547		13.02775646		8.08818580		 0.00000026		 0.00007234		-0.00030369	
O		4.81716451		8.42764362		3.20342643		-0.00021612		-0.00005684		-0.00026461	
O		3.88078227		5.99471916		6.56609550		 0.00021612		 0.00005684		 0.00026461	
O		4.72114780		1.23598463		9.47448132		-0.00019442		-0.00021462		 0.00003919	
O		3.97679898		13.18637816		0.29503955		 0.00019442		 0.00021462		-0.00003919	
O		2.55179669		8.18643306		5.17979999		 0.00019271		 0.00071559		-0.00003031	
O		6.14614904		6.23592972		4.58972088		-0.00019271		-0.00071559		 0.00003031	
O		7.89894985		1.38139253		2.14147923		-0.00027682		-0.00009474		 0.00012109	
O		0.79899587		13.04097026		7.62804164		 0.00027682		 0.00009474		-0.00012109	
O		1.82939526		8.17583448		2.74328120		 0.00004634		 0.00006503		-0.00001253	
O		6.86855152		6.24652937		7.02623966		-0.00004634		-0.00006503		 0.00001253	
O		-1.06312764		0.96239021		8.03054632		 0.00009116		 0.00023588		 0.00003223	
O		9.76107548		13.45997258		1.73897349		-0.00009116		-0.00023588		-0.00003223	
O		8.33268974		8.37544543		6.62373498		 0.00024192		 0.00049757		 0.00008972	
O		0.36525704		6.04691842		3.14578588		-0.00024192		-0.00049757		-0.00008972	
O		9.69832215		1.50825873		0.27256974		-0.00008974		-0.00004008		 0.00013966	
O		-1.00037642		12.91410405		9.49695113		 0.00008974		 0.00004008		-0.00013966	
O		0.03442050		8.15892464		4.61219069		 0.00005261		-0.00014380		 0.00000935	
O		8.66352628		6.26343815		5.15733018		-0.00005261		 0.00014380		-0.00000935	
O		1.39946481		1.08904342		8.63430334		 0.00040890		 0.00055180		-0.00018405	
O		7.29848198		13.33332042		1.13521753		-0.00040890		-0.00055180		 0.00018405	
O		5.87235328		8.30518131		6.01997796		 0.00002149		-0.00022676		 0.00012479	
O		2.82559350		6.11718253		3.74954185		-0.00002149		 0.00022676		-0.00012479	
O		2.07740663		1.10912267		0.69461325		-0.00022853		 0.00004890		 0.00006253	
O		6.62054015		13.31324012		9.07490762		 0.00022853		-0.00004890		-0.00006253	
O		7.64777968		8.36916066		4.19014824		-0.00022319		-0.00011224		 0.00013885	
O		1.05016604		6.05320212		5.57937262		 0.00022319		 0.00011224		-0.00013885	
O		2.34747349		3.46050625		6.99009194		-0.00009858		 0.00006338		 0.00020905	
O		6.35047435		10.96185653		2.77942893		 0.00009858		-0.00006338		-0.00020905	
O		5.11132667		10.60828316		7.66418937		-0.00036776		 0.00033339		-0.00003550	
O		3.58662011		3.81407963		2.10533150		 0.00036776		-0.00033339		 0.00003550	
O		8.40316049		1.53526913		5.16319214		 0.00017490		 0.00004678		 0.00033023	
O		0.29478736		12.88709366		4.60632873		-0.00017490		-0.00004678		-0.00033023	
O		-1.11803536		8.19164441		9.49108916		 0.00028101		 0.00022910		-0.00000410	
O		9.81598108		6.23071944		0.27843171		-0.00028101		-0.00022910		 0.00000410	
O		-0.70854654		3.45789846		6.22220836		 0.00016807		 0.00044866		-0.00005329	
O		9.40649438		10.96446538		3.54731251		-0.00016807		-0.00044866		 0.00005329	
O		8.17693333		10.85053853		8.43207295		 0.00032714		-0.00027886		-0.00019094	
O		0.52101345		3.57182320		1.33744686		-0.00032714		 0.00027886		 0.00019094	
O		9.00693128		3.85214744		3.55512953		-0.00033145		-0.00002978		 0.00029893	
O		-0.30898450		10.57021641		6.21439240		 0.00033145		 0.00002978		-0.00029893	
O		0.91583993		10.56572563		1.32963197		 0.00003265		 0.00038540		-0.00014340	
O		7.78210685		3.85663716		8.43988890		-0.00003265		-0.00038540		 0.00014340	
H		-1.09883138		2.67241521		5.86171337		 0.00015312		 0.00027839		 0.00060731	
H		9.79677816		11.74994757		3.90780750		-0.00015312		-0.00027839		-0.00060731	
H		8.50552872		10.09381197		8.79256899		 0.00011519		 0.00030033		-0.00028374	
H		0.19241807		4.32855082		0.97695187		-0.00011519		-0.00030033		 0.00028374	
H		8.81397915		3.22374621		4.06412128		-0.00003546		 0.00036250		-0.00012399	
H		-0.11603343		11.19861657		5.70539959		 0.00003546		-0.00036250		 0.00012399	
H		1.05905648		9.95077132		0.82064021		 0.00021939		 0.00043303		 0.00032678	
H		7.63888924		4.47159147		8.94888066		-0.00021939		-0.00043303		-0.00032678	
