# total energy = -117575.489222 eV	

CRYSTAL	
PRIMVEC	
		10.58800397		-1.69408535		0.00000000	
		-2.25552435		14.09699772		0.00000000	
		-2.45393664		0.39263201		9.76952112	
PRIMCOORD
   156 1	
Si		8.18106908		-1.29537252		0.72440964		 0.00063562		 0.00008895		-0.00024620	
Si		-2.30252289		14.09092225		9.04511148		-0.00063562		-0.00008895		 0.00024620	
Si		0.04773840		6.87401850		4.16034984		 0.00047095		 0.00074250		 0.00005638	
Si		5.83080779		5.92153016		5.60917128		-0.00047095		-0.00074250		-0.00005638	
Si		3.18719034		2.09496738		6.58055403		 0.00041979		-0.00175299		-0.00030369	
Si		2.69135585		10.70058342		3.18896709		-0.00041979		 0.00175299		 0.00030369	
Si		1.73667580		9.19510662		8.07372657		 0.00081018		-0.00028017		 0.00014743	
Si		4.14187147		3.60044204		1.69579347		-0.00081018		 0.00028017		-0.00014743	
Si		0.92877194		1.57527924		4.16914351		-0.00022766		 0.00090850		 0.00045869	
Si		4.94977533		11.22027049		5.60037762		 0.00022766		-0.00090850		-0.00045869	
Si		6.73836600		7.51380162		0.71561705		 0.00030750		 0.00071173		 0.00063789	
Si		-0.85981981		5.28174704		9.05390299		-0.00030750		-0.00071173		-0.00063789	
Si		6.58706806		0.64014447		5.59793606		-0.00001310		 0.00067843		 0.00036823	
Si		-0.70852186		12.15540526		4.17158506		 0.00001310		-0.00067843		-0.00036823	
Si		-1.36407481		8.78038591		9.05634562		 0.00053406		 0.00001363		-0.00005921	
Si		7.24262208		4.01516382		0.71317550		-0.00053406		-0.00001363		 0.00005921	
Mg		4.06703259		-0.65072453		4.88475949		0.00000000		0.00000000		0.00000000	
Mg		4.16623981		6.20146047		0.00000000		0.00000000		0.00000000		0.00000000	
Mg		4.00211540		1.75675078		3.48176031		-0.00109819		 0.00119479		 0.00026231	
Mg		1.87643186		11.03879788		6.28776081		 0.00109819		-0.00119479		-0.00026231	
Mg		3.44393717		8.71411767		1.40300132		 0.00111461		-0.00060853		-0.00063470	
Mg		2.43460903		4.08143099		8.36651980		-0.00111461		 0.00060853		 0.00063470	
Mg		5.29399984		-0.84704053		0.00000000		0.00000000		0.00000000		0.00000000	
Mg		2.93927256		6.39777540		4.88475949		0.00000000		0.00000000		0.00000000	
Mg		6.18603698		-0.95556253		2.86383750		 0.00061157		 0.00056782		-0.00008082	
Mg		-0.30748972		13.75111333		6.90568362		-0.00061157		-0.00056782		 0.00008082	
Mg		2.03600449		6.57650086		2.02092306		-0.00004054		 0.00014556		-0.00054869	
Mg		3.84254277		6.21904887		7.74859806		 0.00004054		-0.00014556		 0.00054869	
Mg		0.42091948		-0.06253890		1.48887489		 0.00038960		 0.00042927		 0.00114817	
Mg		5.45762671		12.85808863		8.28064623		-0.00038960		-0.00042927		-0.00114817	
Mg		7.81077454		5.62314184		3.39588459		 0.00069578		-0.00045331		 0.00041703	
Mg		-1.93222942		7.17240682		6.37363653		-0.00069578		 0.00045331		-0.00041703	
Mg		-0.86917748		0.14387571		6.20091147		 0.00085527		-0.00015184		-0.00088059	
Mg		6.74772368		12.65167295		3.56860965		-0.00085527		 0.00015184		 0.00088059	
Mg		6.64693808		5.80935602		8.45337128		 0.00038027		 0.00054103		 0.00064131	
Mg		-0.76839189		6.98619371		1.31614984		-0.00038027		-0.00054103		-0.00064131	
Mg		3.18779295		-0.47199799		2.10484296		-0.00119071		 0.00023051		 0.00005928	
Mg		2.69075431		13.26754665		7.66467816		 0.00119071		-0.00023051		-0.00005928	
Mg		5.03298539		6.10083036		2.77991653		 0.00024257		-0.00091810		 0.00057471	
Mg		0.84556188		6.69471937		6.98960352		-0.00024257		 0.00091810		-0.00057471	
Mg		6.18783732		1.34426253		1.20760961		 0.00100299		 0.00045758		 0.00074995	
Mg		-0.30929113		11.45128827		8.56191044		-0.00100299		-0.00045758		-0.00074995	
Mg		1.27882958		8.99776124		3.67714988		 0.00050647		-0.00023126		-0.00020453	
Mg		4.59971554		3.79778849		6.09237124		-0.00050647		 0.00023126		 0.00020453	
Mg		-2.02818659		2.70127003		9.47360224		-0.00026976		-0.00059239		-0.00052217	
Mg		7.90673386		10.09427863		0.29591888		 0.00026976		 0.00059239		 0.00052217	
Mg		7.02698168		8.12050208		5.18067945		-0.00090508		 0.00010581		-0.00115438	
Mg		-1.14843548		4.67504765		4.58884168		 0.00090508		-0.00010581		 0.00115438	
Mg		0.06925558		2.42295884		7.34638750		-0.00051800		-0.00191062		-0.00089291	
Mg		5.80928954		10.37258981		2.42313362		 0.00051800		 0.00191062		 0.00089291	
Mg		4.91072658		8.51638198		7.30789526		 0.00055313		 0.00164940		-0.00007608	
Mg		0.96781961		4.27916668		2.46162586		-0.00055313		-0.00164940		 0.00007608	
Mg		5.60724227		1.51943558		8.74235367		-0.00180993		-0.00000601		 0.00214855	
Mg		0.27130500		11.27611308		1.02716745		 0.00180993		 0.00000601		-0.00214855	
Mg		-0.62152991		9.38409904		5.91192801		-0.00126178		 0.00166911		 0.00057834	
Mg		6.50007611		3.41145069		3.85759311		 0.00126178		-0.00166911		-0.00057834	
Mg		3.22507889		1.79948491		0.44060523		 0.00058383		-0.00008627		-0.00063887	
Mg		2.65346730		10.99606482		9.32891589		-0.00058383		 0.00008627		 0.00063887	
Mg		4.24776748		8.50391259		4.44415533		-0.00008059		 0.00005811		 0.00048454	
Mg		1.63077764		4.29163714		5.32536579		 0.00008059		-0.00005811		-0.00048454	
Mg		9.00422915		0.99748388		1.94237628		 0.00271166		 0.00094836		 0.00005609	
Mg		-3.12568189		11.79806478		7.82714484		-0.00271166		-0.00094836		-0.00005609	
Mg		-1.57166463		9.55768620		2.94238428		 0.00069822		-0.00005450		 0.00096936	
Mg		7.45021189		3.23786353		6.82713577		-0.00069822		 0.00005450		-0.00096936	
O		3.46428987		0.47866964		6.54167149		-0.00083280		 0.00080328		-0.00031035	
O		2.41425740		12.31688009		3.22784963		 0.00083280		-0.00080328		 0.00031035	
O		1.97582029		7.58488434		8.11261019		-0.00073473		 0.00025773		-0.00096250	
O		3.90272697		5.21066646		1.65691093		 0.00073473		-0.00025773		 0.00096250	
O		5.52666676		0.30940157		4.50668029		 0.00006623		 0.00040396		 0.00013712	
O		0.35187943		12.48614816		5.26284083		-0.00006623		-0.00040396		-0.00013712	
O		2.31459661		7.69139155		0.37808134		 0.00104034		 0.00050972		 0.00007738	
O		3.56394958		5.10415818		9.39144085		-0.00104034		-0.00050972		-0.00007738	
O		6.34607498		2.28129629		5.59402765		-0.00047584		 0.00051856		 0.00102268	
O		-0.46752771		10.51425344		4.17549347		 0.00047584		-0.00051856		-0.00102268	
O		-1.64938469		10.42862756		9.06025403		 0.00067064		-0.00054103		 0.00001049	
O		7.52793088		2.36692110		0.70926709		-0.00067064		 0.00054103		-0.00001049	
O		6.30820787		0.16924555		7.12100448		-0.00127797		 0.00011925		-0.00107537	
O		-0.42966168		12.62630418		2.64851664		 0.00127797		-0.00011925		 0.00107537	
O		-0.91591653		8.19316425		7.53327720		-0.00105426		 0.00092931		-0.00065757	
O		6.79446165		4.60238548		2.23624285		 0.00105426		-0.00092931		 0.00065757	
O		0.68889831		3.22078554		4.15106937		-0.00050884		 0.00107771		 0.00236993	
O		5.18964896		9.57476527		5.61845068		 0.00050884		-0.00107771		-0.00236993	
O		6.45044837		9.16699499		0.73369119		-0.00136076		 0.00035389		 0.00133858	
O		-0.57190218		3.62855366		9.03582993		 0.00136076		-0.00035389		-0.00133858	
O		2.53599401		0.79615074		3.75345025		-0.00079923		-0.00019609		 0.00066321	
O		3.34255218		11.99939899		6.01607087		 0.00079923		 0.00019609		-0.00066321	
O		5.30256296		7.22155846		1.13131031		 0.00041957		 0.00012604		 0.00141904	
O		0.57598430		5.57399127		8.63820974		-0.00041957		-0.00012604		-0.00141904	
O		0.60405196		1.09976850		5.68195354		 0.00102225		-0.00038397		 0.00018746	
O		5.27449530		11.69578230		4.08756650		-0.00102225		 0.00038397		-0.00018746	
O		4.78237729		7.29929353		8.97232814		 0.00070303		 0.00024961		 0.00045337	
O		1.09616997		5.49625513		0.79719298		-0.00070303		-0.00024961		-0.00045337	
O		-0.12346082		1.22990633		3.09791553		-0.00004275		-0.00082338		 0.00296238	
O		6.00200701		11.56564447		6.67160559		 0.00004275		 0.00082338		-0.00296238	
O		7.95931140		6.80472110		1.78684503		 0.00102644		 0.00087384		 0.00038690	
O		-2.08076520		5.99082863		7.98267502		-0.00102644		-0.00087384		-0.00038690	
O		3.43922884		2.76424749		5.17100652		 0.00025240		 0.00035504		-0.00005366	
O		2.43931735		10.03130117		4.59851352		-0.00025240		-0.00035504		 0.00005366	
O		1.25159615		9.98232752		9.48327408		 0.00079734		 0.00018429		-0.00019613	
O		4.62695004		2.81322221		0.28624704		-0.00079734		-0.00018429		 0.00019613	
O		4.11672788		2.61876123		7.61534208		-0.00017132		-0.00018266		-0.00082677	
O		1.76181831		10.17678850		2.15417904		 0.00017132		 0.00018266		 0.00082677	
O		0.58627699		10.05169247		7.03893960		 0.00145712		 0.00006456		-0.00048060	
O		5.29226920		2.74385833		2.73058152		-0.00145712		-0.00006456		 0.00048060	
O		4.68185119		0.41984722		1.68133395		-0.00043549		 0.00219939		 0.00089323	
O		1.19669608		12.37570252		8.08818610		 0.00043549		-0.00219939		-0.00089323	
O		3.16753354		7.53019658		3.20342553		 0.00069172		-0.00170721		-0.00031897	
O		2.71101265		5.26535315		6.56609451		-0.00069172		 0.00170721		 0.00031897	
O		4.51138432		0.30014576		9.47448149		-0.00059901		-0.00132984		-0.00035893	
O		1.36716187		12.49540397		0.29503963		 0.00059901		 0.00132984		 0.00035893	
O		0.93233401		7.74085201		5.17980019		 0.00152412		-0.00041532		 0.00036955	
O		4.94621218		5.05469665		4.58972093		-0.00152412		 0.00041532		-0.00036955	
O		7.68552196		-0.18985881		2.14147911		 0.00044632		 0.00040624		 0.00001038	
O		-1.80697469		12.98540854		7.62804201		-0.00044632		-0.00040624		-0.00001038	
O		0.20626557		7.87488002		2.74328145		-0.00067243		 0.00044562		-0.00186476	
O		5.67227955		4.92066971		7.02623967		 0.00067243		-0.00044562		 0.00186476	
O		-1.26443333		1.18306756		8.03054638		-0.00057486		-0.00040782		 0.00002983	
O		7.14297952		11.61248217		1.73897367		 0.00057486		 0.00040782		-0.00002983	
O		6.72168474		6.77334657		6.62373530		 0.00096850		-0.00006108		-0.00140767	
O		-0.84313748		6.02220209		3.14578582		-0.00096850		 0.00006108		 0.00140767	
O		9.47389818		-0.42242923		0.27257027		-0.00034153		 0.00104335		-0.00035383	
O		-3.59535092		13.21797897		9.49695085		 0.00034153		-0.00104335		 0.00035383	
O		-1.59970334		8.21740606		4.61219136		 0.00070619		-0.00041557		-0.00058674	
O		7.47824953		4.57814260		5.15732976		-0.00070619		 0.00041557		 0.00058674	
O		1.19252067		0.81742773		8.63430347		 0.00110094		-0.00114735		 0.00064491	
O		4.68602552		11.97812092		1.13521765		-0.00110094		 0.00114735		-0.00064491	
O		4.25570869		7.19537585		6.01997821		 0.00036377		 0.00054740		-0.00038021	
O		1.62283750		5.60017388		3.74954184		-0.00036377		-0.00054740		 0.00038021	
O		1.87187151		0.70186309		0.69461349		-0.00025488		 0.00083286		-0.00025392	
O		4.00667361		12.09368557		9.07490763		 0.00025488		-0.00083286		 0.00025392	
O		6.03254625		6.90421354		4.19014814		 0.00027855		-0.00109516		-0.00032753	
O		-0.15400006		5.89133619		5.57937298		-0.00027855		 0.00109516		 0.00032753	
O		1.67307321		3.01798768		6.99009247		-0.00029426		-0.00093640		 0.00049882	
O		4.20547406		9.77756205		2.77942865		 0.00029426		 0.00093640		-0.00049882	
O		3.02722740		9.66938103		7.66418921		 0.00088225		-0.00008956		 0.00021061	
O		2.85131986		3.12616763		2.10533191		-0.00088225		 0.00008956		-0.00021061	
O		8.16294669		-0.13575436		5.16319184		-0.00009825		-0.00058676		 0.00029745	
O		-2.28440050		12.93130409		4.60632928		 0.00009825		 0.00058676		-0.00029745	
O		-2.76794788		8.48124701		9.49108877		 0.00072761		-0.00094483		 0.00011202	
O		8.64649408		4.31430165		0.27843235		-0.00072761		 0.00094483		-0.00011202	
O		-1.40691295		3.62754252		6.22220776		-0.00096679		-0.00030474		-0.00025704	
O		7.28545914		9.16800829		3.54731336		 0.00096679		 0.00030474		 0.00025704	
O		6.06886822		9.29947465		8.43207284		 0.00061608		-0.00310013		 0.00270013	
O		-0.19032096		3.49607401		1.33744720		-0.00061608		 0.00310013		-0.00270013	
O		8.30743789		2.07874076		3.55512911		 0.00121348		-0.00118554		 0.00030035	
O		-2.42889063		10.71680897		6.21439201		-0.00121348		 0.00118554		-0.00030035	
O		-1.19335275		10.46692465		1.32963252		 0.00034649		 0.00138435		-0.00076498	
O		7.07190001		2.32862401		8.43988860		-0.00034649		-0.00138435		 0.00076498	
H		-1.64297575		2.91394669		5.86171267		-0.00065861		 0.00032563		-0.00099240	
H		7.52152194		9.88160197		3.90780845		 0.00065861		-0.00032563		 0.00099240	
H		6.55168539		8.47085996		8.79256901		-0.00088985		 0.00319553		-0.00134669	
H		-0.67313813		4.32468977		0.97695211		 0.00088985		-0.00319553		 0.00134669	
H		8.23882245		1.48395641		4.06412139		 0.00042109		-0.00062101		 0.00014786	
H		-2.36027519		11.31159333		5.70539973		-0.00042109		 0.00062101		-0.00014786	
H		-0.92579961		9.81835430		0.82064025		-0.00047936		 0.00086109		 0.00116436	
H		6.80434688		2.97719543		8.94888087		 0.00047936		-0.00086109		-0.00116436	
