# total energy = -12279.8582504 eV	

CRYSTAL	
PRIMVEC	
		2.82869979		0.00000000		0.00000000	
		-1.41434989		2.72191920		0.00000000	
		0.00000000		0.00000000		22.77199789	
PRIMCOORD
   22 1	
O		0.00000000		1.81461176		15.30961374		0.00000000		 0.00038988		 0.00029351	
O		1.41434989		0.90730602		7.46238443		0.00000000		-0.00038988		-0.00029351	
O		1.41434989		0.90730602		17.52077471		0.00000000		-0.00027541		 0.00078204	
O		0.00000000		1.81461176		5.25122261		0.00000000		 0.00027541		-0.00078204	
O		0.00000000		1.81461176		10.28155716		0.00000000		 0.00032927		-0.00030758	
O		1.41434989		0.90730602		12.49044102		0.00000000		-0.00032927		 0.00030758	
O		0.00000000		1.81461176		20.41965058		0.00000000		 0.00005993		 0.00058290	
O		1.41434989		0.90730602		2.35234674		0.00000000		-0.00005993		-0.00058290	
O		0.00000000		0.00000000		0.00000000		0.00000000		0.00000000		0.00000000	
H		0.00000000		1.81461176		14.32130903		0.00000000		 0.00022723		-0.00071344	
H		1.41434989		0.90730602		8.45068829		0.00000000		-0.00022723		 0.00071344	
H		0.00000000		1.81461176		9.29097534		0.00000000		 0.00017564		-0.00004106	
H		1.41434989		0.90730602		13.48102311		0.00000000		-0.00017564		 0.00004106	
H		0.00000000		1.81461176		19.42906848		0.00000000		-0.00026445		 0.00067544	
H		1.41434989		0.90730602		3.34292884		0.00000000		 0.00026445		-0.00067544	
H		1.41434989		0.90730602		18.51135652		0.00000000		-0.00069220		-0.00045994	
H		0.00000000		1.81461176		4.26064080		0.00000000		 0.00069220		 0.00045994	
Mg		0.00000000		0.00000000		16.41633264		0.00000000		 0.00010828		-0.00011272	
Mg		0.00000000		0.00000000		6.35566440		0.00000000		-0.00010828		 0.00011272	
Mg		1.41434989		0.90730602		21.53547845		0.00000000		-0.00068365		-0.00078151	
Mg		0.00000000		1.81461176		1.23652000		0.00000000		 0.00068365		 0.00078151	
Mg		0.00000000		0.00000000		11.38599923		0.00000000		0.00000000		0.00000000	
