# total energy = -4139.40007776 eV	

CRYSTAL	
PRIMVEC	
		3.46145375		0.00000331		0.00000000	
		-1.73072357		2.99771191		0.00000000	
		0.00000000		0.00000000		4.15738902	
PRIMCOORD
   4 1	
Mg		0.00000000		1.99847637		-0.19845433		 0.00000027		-0.00000016		 0.00001367	
Mg		1.73072985		0.99923786		1.88023919		-0.00000029		 0.00000018		 0.00001393	
O		0.00000000		1.99847505		1.88053325		 0.00000013		 0.00000009		-0.00001404	
O		1.73072952		0.99923951		3.95922644		-0.00000010		-0.00000010		-0.00001357	
