# total energy = -4139.22187774 eV	

CRYSTAL	
PRIMVEC	
		3.31987054		0.00000000		0.00000000	
		-1.65993362		2.87509224		0.00000000	
		0.00000000		0.00000000		5.15028751	
PRIMCOORD
   4 1	
Mg		0.00000000		1.91672772		0.03655568		-0.00000005		-0.00000002		 0.00000935	
Mg		1.65993494		0.95836386		2.61170042		 0.00000001		-0.00000002		 0.00000902	
O		0.00000000		1.91672772		2.04725069		 0.00000004		0.00000000		-0.00000950	
O		1.65993461		0.95836386		4.62239345		-0.00000000		 0.00000003		-0.00000888	
