# total energy = -4139.22167909 eV	

CRYSTAL	
PRIMVEC	
		3.29864447		0.00000000		0.00000000	
		-1.64932223		2.85671087		0.00000000	
		0.00000000		0.00000000		4.96997672	
PRIMCOORD
   4 1	
Mg		0.00000000		1.90447303		0.01122531		 0.00000003		-0.00000010		 0.00010636	
Mg		1.64932157		0.95223651		2.49621267		-0.00000004		 0.00000004		 0.00010663	
O		0.00000000		1.90447336		1.99962616		 0.00000001		-0.00000010		-0.00010635	
O		1.64932157		0.95223585		4.48461386		-0.00000001		 0.00000017		-0.00010663	
