# total energy = -8279.1933952 eV

CRYSTAL
PRIMVEC
		4.29791932		0.00000000		0.00000000
		0.00000000		4.29791932		0.00000000
		0.00000000		0.00000000		4.29791932
PRIMECORD
   8 1
Mg		0.00000000		0.00000000		0.00000000		-0.00000004		 0.00000004		 0.00000006
Mg		0.00000000		2.14895966		2.14895882		 0.00000001		-0.00000009		 0.00000008
Mg		2.14895924		0.00000000		2.14895924		 0.00000011		-0.00000008		-0.00000008
Mg		2.14895924		2.14895882		0.00000000		-0.00000007		 0.00000016		-0.00000009
O		2.14895966		2.14895882		2.14895797		-0.00000008		 0.00000011		 0.00000032
O		2.14895924		0.00000000		0.00000000		 0.00000004		-0.00000016		 0.00000010
O		0.00000000		2.14895966		0.00000000		 0.00000009		-0.00000013		-0.00000026
O		0.00000000		0.00000000		2.14895966		-0.00000009		 0.00000014		-0.00000012
