# total energy = -66815.2318958 eV	

CRYSTAL	
PRIMVEC	
		18.34339846		0.00000000		0.00000000	
		0.00000000		6.73129350		0.00000000	
		0.00000000		0.00000000		11.15650997	
PRIMCOORD
   112 1	
Ca		14.17192622		6.72409738		2.58362548		-0.00005343		 0.00013595		 0.00045744	
Ca		4.17147224		0.00720345		8.57288449		 0.00005343		-0.00013595		-0.00045744	
Ca		4.17147224		0.00720345		2.58362548		 0.00005343		-0.00013595		 0.00045744	
Ca		14.17192622		6.72409738		8.57288449		-0.00005343		 0.00013595		-0.00045744	
Ca		13.34317147		3.35844697		2.99462950		 0.00005343		 0.00013595		-0.00045744	
Ca		5.00022699		3.37285204		8.16188047		-0.00005343		-0.00013595		 0.00045744	
Ca		5.00022699		3.37285204		2.99462950		-0.00005343		-0.00013595		-0.00045744	
Ca		13.34317147		3.35844697		8.16188047		 0.00005343		 0.00013595		 0.00045744	
Ca		7.55546239		1.06468937		8.35220974		-0.00017875		-0.00001883		 0.00012090	
Ca		10.78793607		5.66660963		2.80430024		 0.00017875		 0.00001883		-0.00012090	
Ca		10.78793607		5.66660963		8.35220974		 0.00017875		 0.00001883		 0.00012090	
Ca		7.55546239		1.06468937		2.80430024		-0.00017875		-0.00001883		-0.00012090	
Ca		1.61623684		4.43033979		8.38255522		 0.00017875		-0.00001883		-0.00012090	
Ca		16.72716162		2.30095922		2.77395475		-0.00017875		 0.00001883		 0.00012090	
Ca		16.72716162		2.30095922		8.38255522		-0.00017875		 0.00001883		-0.00012090	
Ca		1.61623684		4.43033979		2.77395475		 0.00017875		-0.00001883		 0.00012090	
Ca		6.10413271		5.40388814		0.00000000		-0.00023454		 0.00021344		0.00000000	
Ca		12.23926575		1.32741269		0.00000000		 0.00023454		-0.00021344		0.00000000	
Ca		3.06756652		2.03823773		5.57825499		 0.00023454		 0.00021344		0.00000000	
Ca		15.27583194		4.69306128		5.57825499		-0.00023454		-0.00021344		0.00000000	
Ca		12.35024332		1.15643754		5.57825499		-0.00064532		-0.00053784		-0.00000000	
Ca		5.99315515		5.57486146		5.57825499		 0.00064532		 0.00053784		-0.00000000	
Ca		15.16485438		4.52208613		0.00000000		 0.00064532		-0.00053784		0.00000000	
Ca		3.17854409		2.20921287		0.00000000		-0.00064532		 0.00053784		0.00000000	
Ca		9.17169923		3.36565042		0.00000000		0.00000000		0.00000000		0.00000000	
Ca		0.00000000		0.00000000		5.57825499		0.00000000		0.00000000		0.00000000	
Ca		9.17169923		3.36565042		5.57825499		0.00000000		0.00000000		0.00000000	
Ca		0.00000000		0.00000000		0.00000000		0.00000000		0.00000000		0.00000000	
Si		7.68918577		4.84249761		8.38724013		 0.00028526		 0.00024135		 0.00011108	
Si		10.65421086		1.88880323		2.76926801		-0.00028526		-0.00024135		-0.00011108	
Si		10.65421086		1.88880323		8.38724013		-0.00028526		-0.00024135		 0.00011108	
Si		7.68918577		4.84249761		2.76926801		 0.00028526		 0.00024135		-0.00011108	
Si		1.48251346		1.47684719		8.34752300		-0.00028526		 0.00024135		-0.00011108	
Si		16.86088500		5.25445365		2.80898514		 0.00028526		-0.00024135		 0.00011108	
Si		16.86088500		5.25445365		8.34752300		 0.00028526		-0.00024135		-0.00011108	
Si		1.48251346		1.47684719		2.80898514		-0.00028526		 0.00024135		 0.00011108	
Si		12.17689820		4.95087040		5.57825499		 0.00060187		 0.00021354		-0.00000000	
Si		6.16650026		1.78042860		5.57825499		-0.00060187		-0.00021354		0.00000000	
Si		15.33819949		1.58522182		0.00000000		-0.00060187		 0.00021354		0.00000000	
Si		3.00519897		5.14607902		0.00000000		 0.00060187		-0.00021354		0.00000000	
Si		6.20337049		1.90361186		0.00000000		-0.00048570		-0.00000112		0.00000000	
Si		12.14002797		4.82768898		0.00000000		 0.00048570		 0.00000112		0.00000000	
Si		2.96832874		5.26926044		5.57825499		 0.00048570		-0.00000112		0.00000000	
Si		15.37506972		1.46203856		5.57825499		-0.00048570		 0.00000112		0.00000000	
Mg		9.17169923		0.00000000		5.57825499		0.00000000		0.00000000		0.00000000	
Mg		0.00000000		3.36565042		0.00000000		0.00000000		0.00000000		0.00000000	
Mg		9.17169923		0.00000000		0.00000000		0.00000000		0.00000000		0.00000000	
Mg		0.00000000		3.36565042		5.57825499		0.00000000		0.00000000		0.00000000	
O		5.29573914		1.72994390		1.36109484		 0.00020213		 0.00005028		 0.00076538	
O		13.04765933		5.00135511		9.79541513		-0.00020213		-0.00005028		-0.00076538	
O		13.04765933		5.00135511		1.36109484		-0.00020213		-0.00005028		 0.00076538	
O		5.29573914		1.72994390		9.79541513		 0.00020213		 0.00005028		-0.00076538	
O		3.87596009		5.09559432		4.21716015		-0.00020213		 0.00005028		-0.00076538	
O		14.46743837		1.63570652		6.93934799		 0.00020213		-0.00005028		 0.00076538	
O		14.46743837		1.63570652		4.21716015		 0.00020213		-0.00005028		-0.00076538	
O		3.87596009		5.09559432		6.93934799		-0.00020213		 0.00005028		 0.00076538	
O		12.78168005		5.70410354		4.24282073		 0.00059199		 0.00005951		-0.00032776	
O		5.56171841		1.02719546		6.91368925		-0.00059199		-0.00005951		 0.00032776	
O		5.56171841		1.02719546		4.24282073		-0.00059199		-0.00005951		-0.00032776	
O		12.78168005		5.70410354		6.91368925		 0.00059199		 0.00005951		 0.00032776	
O		14.73341764		2.33845312		1.33543426		-0.00059199		 0.00005951		 0.00032776	
O		3.60998082		4.39284588		9.82107571		 0.00059199		-0.00005951		-0.00032776	
O		3.60998082		4.39284588		1.33543426		 0.00059199		-0.00005951		 0.00032776	
O		14.73341764		2.33845312		9.82107571		-0.00059199		 0.00005951		-0.00032776	
O		8.72595465		5.25647142		9.60129245		 0.00010685		 0.00014604		 0.00059715	
O		9.61744381		1.47482758		1.55521752		-0.00010685		-0.00014604		-0.00059715	
O		9.61744381		1.47482758		9.60129245		-0.00010685		-0.00014604		 0.00059715	
O		8.72595465		5.25647142		1.55521752		 0.00010685		 0.00014604		-0.00059715	
O		0.44574458		1.89082284		7.13347251		-0.00010685		 0.00014604		-0.00059715	
O		17.89765388		4.84047800		4.02303746		 0.00010685		-0.00014604		 0.00059715	
O		17.89765388		4.84047800		7.13347251		 0.00010685		-0.00014604		-0.00059715	
O		0.44574458		1.89082284		4.02303746		-0.00010685		 0.00014604		 0.00059715	
O		6.21712804		5.45302644		8.77124817		-0.00022511		-0.00028109		-0.00004959	
O		12.12627042		1.27827440		2.38526181		 0.00022511		 0.00028109		 0.00004959	
O		12.12627042		1.27827440		8.77124817		 0.00022511		 0.00028109		-0.00004959	
O		6.21712804		5.45302644		2.38526181		-0.00022511		-0.00028109		 0.00004959	
O		2.95457119		2.08737602		7.96351679		 0.00022511		-0.00028109		 0.00004959	
O		15.38882727		4.64392298		3.19299318		-0.00022511		 0.00028109		-0.00004959	
O		15.38882727		4.64392298		7.96351679		-0.00022511		 0.00028109		 0.00004959	
O		2.95457119		2.08737602		3.19299318		 0.00022511		-0.00028109		-0.00004959	
O		6.89711782		3.33805278		0.00000000		 0.00041388		-0.00038224		0.00000000	
O		11.44628064		3.39324806		0.00000000		-0.00041388		 0.00038224		0.00000000	
O		2.27458141		6.70370136		5.57825499		-0.00041388		-0.00038224		0.00000000	
O		16.06881705		0.02759764		5.57825499		 0.00041388		 0.00038224		0.00000000	
O		7.54830847		3.29497147		8.02264674		-0.00013712		 0.00037401		-0.00004801	
O		10.79508999		3.43632937		3.13386324		 0.00013712		-0.00037401		 0.00004801	
O		10.79508999		3.43632937		8.02264674		 0.00013712		-0.00037401		-0.00004801	
O		7.54830847		3.29497147		3.13386324		-0.00013712		 0.00037401		 0.00004801	
O		1.62339076		6.66062005		8.71211822		 0.00013712		 0.00037401		 0.00004801	
O		16.72000770		0.07067895		2.44439175		-0.00013712		-0.00037401		-0.00004801	
O		16.72000770		0.07067895		8.71211822		-0.00013712		-0.00037401		 0.00004801	
O		1.62339076		6.66062005		2.44439175		 0.00013712		 0.00037401		-0.00004801	
O		7.29700391		0.70342164		0.00000000		 0.00007017		 0.00038532		-0.00000000	
O		11.04639455		6.02787920		0.00000000		-0.00007017		-0.00038532		-0.00000000	
O		1.87469532		4.06907022		5.57825499		-0.00007017		 0.00038532		0.00000000	
O		16.46870314		2.66222878		5.57825499		 0.00007017		-0.00038532		0.00000000	
O		10.57313487		5.19521731		5.57825499		-0.00006425		-0.00048540		-0.00000000	
O		7.77026359		1.53608352		5.57825499		 0.00006425		 0.00048540		-0.00000000	
O		16.94196282		1.82956689		0.00000000		 0.00006425		-0.00048540		0.00000000	
O		1.40143564		4.90173211		0.00000000		-0.00006425		 0.00048540		0.00000000	
O		12.74132457		3.45046479		5.57825499		 0.00000738		 0.00046010		0.00000000	
O		5.60207389		3.28083605		5.57825499		-0.00000738		-0.00046010		0.00000000	
O		14.77377312		0.08481437		0.00000000		-0.00000738		 0.00046010		-0.00000000	
O		3.56962534		6.64648463		0.00000000		 0.00000738		-0.00046010		-0.00000000	
O		8.14997194		5.66102224		7.02413852		 0.00012861		 0.00036328		-0.00043124	
O		10.19342652		1.07027677		4.13237146		-0.00012861		-0.00036328		 0.00043124	
O		10.19342652		1.07027677		7.02413852		-0.00012861		-0.00036328		-0.00043124	
O		8.14997194		5.66102224		4.13237146		 0.00012861		 0.00036328		 0.00043124	
O		1.02172729		2.29537365		9.71062644		-0.00012861		 0.00036328		 0.00043124	
O		17.32167117		4.43592535		1.44588353		 0.00012861		-0.00036328		-0.00043124	
O		17.32167117		4.43592535		9.71062644		 0.00012861		-0.00036328		 0.00043124	
O		1.02172729		2.29537365		1.44588353		-0.00012861		 0.00036328		-0.00043124	
