# total energy = -66808.9738511 eV	

CRYSTAL	
PRIMVEC	
		18.34339846		0.00000000		0.00000000	
		0.00000000		6.73129350		0.00000000	
		0.00000000		0.00000000		10.06806774	
PRIMCOORD
   112 1	
Ca		14.17192622		6.72409738		2.33156334		 0.00021103		 0.00033244		 0.00022303	
Ca		4.17147224		0.00720345		7.73650623		-0.00021103		-0.00033244		-0.00022303	
Ca		4.17147224		0.00720345		2.33156334		-0.00021103		-0.00033244		 0.00022303	
Ca		14.17192622		6.72409738		7.73650623		 0.00021103		 0.00033244		-0.00022303	
Ca		13.34317147		3.35844697		2.70247053		-0.00021103		 0.00033244		-0.00022303	
Ca		5.00022699		3.37285204		7.36559905		 0.00021103		-0.00033244		 0.00022303	
Ca		5.00022699		3.37285204		2.70247053		 0.00021103		-0.00033244		-0.00022303	
Ca		13.34317147		3.35844697		7.36559905		-0.00021103		 0.00033244		 0.00022303	
Ca		7.55546239		1.06468937		7.53735929		-0.00019565		 0.00007243		 0.00008046	
Ca		10.78793607		5.66660963		2.53071028		 0.00019565		-0.00007243		-0.00008046	
Ca		10.78793607		5.66660963		7.53735929		 0.00019565		-0.00007243		 0.00008046	
Ca		7.55546239		1.06468937		2.53071028		-0.00019565		 0.00007243		-0.00008046	
Ca		1.61623684		4.43033979		7.56474415		 0.00019565		 0.00007243		-0.00008046	
Ca		16.72716162		2.30095922		2.50332542		-0.00019565		-0.00007243		 0.00008046	
Ca		16.72716162		2.30095922		7.56474415		-0.00019565		-0.00007243		-0.00008046	
Ca		1.61623684		4.43033979		2.50332542		 0.00019565		 0.00007243		 0.00008046	
Ca		6.10413271		5.40388814		0.00000000		-0.00003262		-0.00041961		0.00000000	
Ca		12.23926575		1.32741269		0.00000000		 0.00003262		 0.00041961		0.00000000	
Ca		3.06756652		2.03823773		5.03403570		 0.00003262		-0.00041961		0.00000000	
Ca		15.27583194		4.69306128		5.03403570		-0.00003262		 0.00041961		0.00000000	
Ca		12.35024332		1.15643754		5.03403570		-0.00025012		 0.00006544		-0.00000000	
Ca		5.99315515		5.57486146		5.03403570		 0.00025012		-0.00006544		-0.00000000	
Ca		15.16485438		4.52208613		0.00000000		 0.00025012		 0.00006544		0.00000000	
Ca		3.17854409		2.20921287		0.00000000		-0.00025012		-0.00006544		0.00000000	
Ca		9.17169923		3.36565042		0.00000000		0.00000000		0.00000000		0.00000000	
Ca		0.00000000		0.00000000		5.03403570		0.00000000		0.00000000		0.00000000	
Ca		9.17169923		3.36565042		5.03403570		0.00000000		0.00000000		0.00000000	
Ca		0.00000000		0.00000000		0.00000000		0.00000000		0.00000000		0.00000000	
Si		7.68918577		4.84249761		7.56897414		-0.00005551		 0.00013976		-0.00027886	
Si		10.65421086		1.88880323		2.49909727		 0.00005551		-0.00013976		 0.00027886	
Si		10.65421086		1.88880323		7.56897414		 0.00005551		-0.00013976		-0.00027886	
Si		7.68918577		4.84249761		2.49909727		-0.00005551		 0.00013976		 0.00027886	
Si		1.48251346		1.47684719		7.53313114		 0.00005551		 0.00013976		 0.00027886	
Si		16.86088500		5.25445365		2.53493844		-0.00005551		-0.00013976		-0.00027886	
Si		16.86088500		5.25445365		7.53313114		-0.00005551		-0.00013976		 0.00027886	
Si		1.48251346		1.47684719		2.53493844		 0.00005551		 0.00013976		-0.00027886	
Si		12.17689820		4.95087040		5.03403570		-0.00046408		 0.00083640		0.00000000	
Si		6.16650026		1.78042860		5.03403570		 0.00046408		-0.00083640		0.00000000	
Si		15.33819949		1.58522182		0.00000000		 0.00046408		 0.00083640		0.00000000	
Si		3.00519897		5.14607902		0.00000000		-0.00046408		-0.00083640		0.00000000	
Si		6.20337049		1.90361186		0.00000000		-0.00009045		-0.00047670		0.00000000	
Si		12.14002797		4.82768898		0.00000000		 0.00009045		 0.00047670		0.00000000	
Si		2.96832874		5.26926044		5.03403570		 0.00009045		-0.00047670		0.00000000	
Si		15.37506972		1.46203856		5.03403570		-0.00009045		 0.00047670		0.00000000	
Mg		9.17169923		0.00000000		5.03403570		0.00000000		0.00000000		0.00000000	
Mg		0.00000000		3.36565042		0.00000000		0.00000000		0.00000000		0.00000000	
Mg		9.17169923		0.00000000		0.00000000		0.00000000		0.00000000		0.00000000	
Mg		0.00000000		3.36565042		5.03403570		0.00000000		0.00000000		-0.00000000	
O		5.29573914		1.72994390		1.22830331		 0.00009152		 0.00002283		-0.00026107	
O		13.04765933		5.00135511		8.83976626		-0.00009152		-0.00002283		 0.00026107	
O		13.04765933		5.00135511		1.22830331		-0.00009152		-0.00002283		-0.00026107	
O		5.29573914		1.72994390		8.83976626		 0.00009152		 0.00002283		 0.00026107	
O		3.87596009		5.09559432		3.80573056		-0.00009152		 0.00002283		 0.00026107	
O		14.46743837		1.63570652		6.26233901		 0.00009152		-0.00002283		-0.00026107	
O		14.46743837		1.63570652		3.80573056		 0.00009152		-0.00002283		 0.00026107	
O		3.87596009		5.09559432		6.26233901		-0.00009152		 0.00002283		-0.00026107	
O		12.78168005		5.70410354		3.82888727		-0.00014699		 0.00026791		 0.00043358	
O		5.56171841		1.02719546		6.23918231		 0.00014699		-0.00026791		-0.00043358	
O		5.56171841		1.02719546		3.82888727		 0.00014699		-0.00026791		 0.00043358	
O		12.78168005		5.70410354		6.23918231		-0.00014699		 0.00026791		-0.00043358	
O		14.73341764		2.33845312		1.20514844		 0.00014699		 0.00026791		-0.00043358	
O		3.60998082		4.39284588		8.86292114		-0.00014699		-0.00026791		 0.00043358	
O		3.60998082		4.39284588		1.20514844		-0.00014699		-0.00026791		-0.00043358	
O		14.73341764		2.33845312		8.86292114		 0.00014699		 0.00026791		 0.00043358	
O		8.72595465		5.25647142		8.66458131		-0.00021151		 0.00007382		-0.00053920	
O		9.61744381		1.47482758		1.40348827		 0.00021151		-0.00007382		 0.00053920	
O		9.61744381		1.47482758		8.66458131		 0.00021151		-0.00007382		-0.00053920	
O		8.72595465		5.25647142		1.40348827		-0.00021151		 0.00007382		 0.00053920	
O		0.44574458		1.89082284		6.43752397		 0.00021151		 0.00007382		 0.00053920	
O		17.89765388		4.84047800		3.63054560		-0.00021151		-0.00007382		-0.00053920	
O		17.89765388		4.84047800		6.43752397		-0.00021151		-0.00007382		 0.00053920	
O		0.44574458		1.89082284		3.63054560		 0.00021151		 0.00007382		-0.00053920	
O		6.21712804		5.45302644		7.91551762		-0.00047505		-0.00007158		 0.00046096	
O		12.12627042		1.27827440		2.15255379		 0.00047505		 0.00007158		-0.00046096	
O		12.12627042		1.27827440		7.91551762		 0.00047505		 0.00007158		 0.00046096	
O		6.21712804		5.45302644		2.15255379		-0.00047505		-0.00007158		-0.00046096	
O		2.95457119		2.08737602		7.18658949		 0.00047505		-0.00007158		-0.00046096	
O		15.38882727		4.64392298		2.88148192		-0.00047505		 0.00007158		 0.00046096	
O		15.38882727		4.64392298		7.18658949		-0.00047505		 0.00007158		-0.00046096	
O		2.95457119		2.08737602		2.88148192		 0.00047505		-0.00007158		 0.00046096	
O		6.89711782		3.33805278		0.00000000		-0.00059989		-0.00037518		0.00000000	
O		11.44628064		3.39324806		0.00000000		 0.00059989		 0.00037518		0.00000000	
O		2.27458141		6.70370136		5.03403570		 0.00059989		-0.00037518		0.00000000	
O		16.06881705		0.02759764		5.03403570		-0.00059989		 0.00037518		0.00000000	
O		7.54830847		3.29497147		7.23994860		-0.00014272		 0.00005170		 0.00009637	
O		10.79508999		3.43632937		2.82812097		 0.00014272		-0.00005170		-0.00009637	
O		10.79508999		3.43632937		7.23994860		 0.00014272		-0.00005170		 0.00009637	
O		7.54830847		3.29497147		2.82812097		-0.00014272		 0.00005170		-0.00009637	
O		1.62339076		6.66062005		7.86215668		 0.00014272		 0.00005170		-0.00009637	
O		16.72000770		0.07067895		2.20591473		-0.00014272		-0.00005170		 0.00009637	
O		16.72000770		0.07067895		7.86215668		-0.00014272		-0.00005170		-0.00009637	
O		1.62339076		6.66062005		2.20591473		 0.00014272		 0.00005170		 0.00009637	
O		7.29700391		0.70342164		0.00000000		 0.00008932		-0.00062250		0.00000000	
O		11.04639455		6.02787920		0.00000000		-0.00008932		 0.00062250		0.00000000	
O		1.87469532		4.06907022		5.03403570		-0.00008932		-0.00062250		0.00000000	
O		16.46870314		2.66222878		5.03403570		 0.00008932		 0.00062250		0.00000000	
O		10.57313487		5.19521731		5.03403570		-0.00027787		-0.00000542		0.00000000	
O		7.77026359		1.53608352		5.03403570		 0.00027787		 0.00000542		0.00000000	
O		16.94196282		1.82956689		0.00000000		 0.00027787		-0.00000542		0.00000000	
O		1.40143564		4.90173211		0.00000000		-0.00027787		 0.00000542		0.00000000	
O		12.74132457		3.45046479		5.03403570		 0.00010102		 0.00033109		-0.00000000	
O		5.60207389		3.28083605		5.03403570		-0.00010102		-0.00033109		-0.00000000	
O		14.77377312		0.08481437		0.00000000		-0.00010102		 0.00033109		0.00000000	
O		3.56962534		6.64648463		0.00000000		 0.00010102		-0.00033109		0.00000000	
O		8.14997194		5.66102224		6.33885667		 0.00017861		-0.00008597		 0.00042707	
O		10.19342652		1.07027677		3.72921291		-0.00017861		 0.00008597		-0.00042707	
O		10.19342652		1.07027677		6.33885667		-0.00017861		 0.00008597		 0.00042707	
O		8.14997194		5.66102224		3.72921291		 0.00017861		-0.00008597		-0.00042707	
O		1.02172729		2.29537365		8.76324861		-0.00017861		-0.00008597		-0.00042707	
O		17.32167117		4.43592535		1.30482280		 0.00017861		 0.00008597		 0.00042707	
O		17.32167117		4.43592535		8.76324861		 0.00017861		 0.00008597		-0.00042707	
O		1.02172729		2.29537365		1.30482280		-0.00017861		-0.00008597		 0.00042707	
