# total energy = -49437.921407 eV	

CRYSTAL	
PRIMVEC	
		5.08940064		0.00000000		-0.61072685	
		0.00000000		13.96799885		0.00000000	
		-1.04347176		0.00000000		8.69559800	
PRIMCOORD
   70 1	
Si		2.54469981		0.00000000		-0.30536394		0.00000000		0.00000000		0.00000000	
Si		-0.52173588		6.98399994		4.34780002		0.00000000		0.00000000		0.00000000	
Si		2.47349883		5.25923187		-0.29682007		 0.00032298		-0.00018051		 0.00025991	
Si		2.61590078		8.70876749		-0.31390781		-0.00032298		 0.00018051		-0.00025991	
Si		-0.45053490		12.24323180		4.33925564		-0.00032298		-0.00018051		-0.00025991	
Si		4.49646276		1.72476909		3.74561602		 0.00032298		 0.00018051		 0.00025991	
Mg		0.86219489		2.42358782		-0.10346296		 0.00025447		 0.00041665		 0.00031969	
Mg		4.22720473		11.54441153		-0.50726492		-0.00025447		-0.00041665		-0.00031969	
Mg		1.16076904		9.40758776		4.14589904		-0.00025447		 0.00041665		-0.00031969	
Mg		2.88515882		4.56041160		3.93897211		 0.00025447		-0.00041665		 0.00031969	
Mg		0.46782717		4.51809001		2.71895111		 0.00006783		-0.00014725		 0.00065745	
Mg		3.57810069		9.44991088		5.36592056		-0.00006783		 0.00014725		-0.00065745	
Mg		3.94582084		9.44991088		2.30159111		 0.00022104		-0.00025135		-0.00090843	
Mg		0.10010702		4.51809001		5.78328004		-0.00022104		 0.00025135		 0.00090843	
Mg		1.55513676		11.50208841		1.32348498		-0.00006783		-0.00014725		-0.00065745	
Mg		2.49079110		2.46591095		6.76138566		 0.00006783		 0.00014725		 0.00065745	
Mg		3.16654271		2.46591095		1.13011608		-0.00022104		-0.00025135		 0.00090843	
Mg		0.87938515		11.50208841		6.95475455		 0.00022104		 0.00025135		-0.00090843	
Mg		2.20946411		6.98399994		2.48827069		-0.00072217		-0.00056622		-0.00024848	
Mg		1.83646375		6.98399994		5.59659995		 0.00072217		 0.00056622		 0.00024848	
Mg		-0.18650018		0.00000000		1.55416489		 0.00072217		-0.00056622		 0.00024848	
Mg		-0.85697210		0.00000000		7.14143465		-0.00072217		 0.00056622		-0.00024848	
Mg		2.18794706		0.00000000		2.66757511		-0.00075374		-0.00001379		-0.00065526	
Mg		1.85798080		0.00000000		5.41729655		 0.00075374		 0.00001379		 0.00065526	
Mg		-0.16498313		6.98399994		1.37486098		 0.00075374		-0.00001379		 0.00065526	
Mg		-0.87848914		6.98399994		7.32073753		-0.00075374		 0.00001379		-0.00065526	
O		1.52784281		5.77129771		1.15466715		 0.00014210		 0.00031149		-0.00011147	
O		2.51808505		8.19670165		6.93020451		-0.00014210		-0.00031149		 0.00011147	
O		3.23574304		8.19670165		0.94971882		-0.00021454		 0.00015653		 0.00006044	
O		0.81018379		5.77129771		7.13515284		 0.00021454		-0.00015653		-0.00006044	
O		0.49512112		12.75529867		2.88776893		-0.00014210		 0.00031149		 0.00011147	
O		3.55080674		1.21270171		5.19710273		 0.00014210		-0.00031149		-0.00011147	
O		3.87661999		1.21270171		2.48198888		 0.00021454		 0.00015653		-0.00006044	
O		0.16930787		12.75529867		5.60288278		-0.00021454		-0.00015653		 0.00006044	
O		2.50953195		3.62092513		-0.30114377		-0.00074882		-0.00019219		-0.00023451	
O		2.57986716		10.34707475		-0.30958410		 0.00074882		 0.00019219		 0.00023451	
O		-0.48656802		10.60492455		4.34357986		 0.00074882		-0.00019219		 0.00023451	
O		4.53249588		3.36307584		3.74129180		-0.00074882		 0.00019219		-0.00023451	
O		4.02780161		5.78973562		-0.48333613		 0.00031833		 0.00034411		-0.00015324	
O		1.06159801		8.17826374		-0.12739174		-0.00031833		-0.00034411		 0.00015324	
O		3.08456194		12.77373555		3.91504383		-0.00031833		 0.00034411		 0.00015324	
O		0.96136592		1.19426380		4.16982783		 0.00031833		-0.00034411		-0.00015324	
O		1.66293419		1.02064197		1.04006815		-0.00012793		-0.00027302		-0.00036183	
O		2.38299316		12.94735841		7.04480351		 0.00012793		 0.00027302		 0.00036183	
O		3.12460967		12.94735841		0.86466712		-0.00059203		 0.00002761		 0.00032589	
O		0.92131819		1.02064197		7.22020455		 0.00059203		-0.00002761		-0.00032589	
O		0.36002974		8.00464191		3.00236793		 0.00012793		-0.00027302		 0.00036183	
O		3.68589812		5.96335899		5.08250373		-0.00012793		 0.00027302		-0.00036183	
O		3.98775388		5.96335899		2.56704110		 0.00059203		 0.00002761		-0.00032589	
O		0.05817398		8.00464191		5.51783005		-0.00059203		-0.00002761		 0.00032589	
O		4.83446902		3.51784097		0.78426872		 0.00054493		-0.00052649		 0.00033169	
O		-0.78854116		10.45015838		7.30060295		-0.00054493		 0.00052649		-0.00033169	
O		-0.07731106		10.45015838		1.37368202		-0.00049769		-0.00073706		 0.00049852	
O		4.12323892		3.51784097		6.71118862		 0.00049769		 0.00073706		-0.00049852	
O		2.27789504		10.50184040		2.64743899		-0.00054493		-0.00052649		-0.00033169	
O		1.76803282		3.46615896		5.43743268		 0.00054493		 0.00052649		 0.00033169	
O		2.10027499		3.46615896		2.66875304		 0.00049769		-0.00073706		-0.00049852	
O		1.94565287		10.50184040		5.41611759		-0.00049769		 0.00073706		 0.00049852	
O		0.99589406		12.86159472		-0.11950706		-0.00028830		 0.00021512		-0.00040682	
O		4.09350607		1.10640515		-0.49122081		 0.00028830		-0.00021512		 0.00040682	
O		1.02706986		5.87759478		4.16194264		 0.00028830		 0.00021512		 0.00040682	
O		3.01885799		8.09040457		3.92292903		-0.00028830		-0.00021512		-0.00040682	
H		4.58480787		4.22671674		0.37971017		 0.00015462		 0.00053949		 0.00028461	
H		-0.53888001		9.74128261		7.70516149		-0.00015462		-0.00053949		-0.00028461	
H		0.27815816		9.74128261		0.89650775		-0.00025945		-0.00064641		-0.00055104	
H		3.76776970		4.22671674		7.18836392		 0.00025945		 0.00064641		 0.00055104	
H		2.52755568		11.21071668		3.05199804		-0.00015462		 0.00053949		-0.00028461	
H		1.51837218		2.75728268		5.03287259		 0.00015462		-0.00053949		 0.00028461	
H		1.74480577		2.75728268		3.14592783		 0.00025945		-0.00064641		 0.00055104	
H		2.30112209		11.21071668		4.93894281		-0.00025945		 0.00064641		-0.00055104	
