# total energy = -24706.3575091 eV	

CRYSTAL	
PRIMVEC	
		9.68100001		0.00000000		0.00000000	
		0.00000000		8.73899998		1.39823651	
		1.61441324		0.79121845		4.94515161	
PRIMCOORD
   40 1	
Si		2.35750744		3.74202598		1.56725322		 0.00059007		 0.00046212		-0.00010370	
Si		8.93790581		5.78819826		4.77613394		-0.00059007		-0.00046212		 0.00010370	
Si		3.29020015		8.18906594		2.75099653		 0.00030578		 0.00012359		 0.00000681	
Si		8.00521310		1.34115830		3.59238869		-0.00030578		-0.00012359		-0.00000681	
Si		8.13069919		3.81956594		2.05187730		 0.00033644		-0.00018754		 0.00015211	
Si		3.16471309		5.71065829		4.29150889		-0.00033644		 0.00018754		-0.00015211	
Si		7.19800744		8.11152597		2.26637341		 0.00046199		 0.00045637		-0.00053766	
Si		4.09740580		1.41869827		4.07701375		-0.00046199		-0.00045637		 0.00053766	
O		4.03384133		3.74950164		1.08177527		 0.00014372		 0.00020175		 0.00038254	
O		7.26157192		5.78072163		5.26161092		-0.00014372		-0.00020175		-0.00038254	
O		1.61386530		8.35636910		3.26443998		-0.00001830		 0.00023225		-0.00048478	
O		9.68154698		1.17385417		3.07894718		 0.00001830		-0.00023225		 0.00048478	
O		8.60171275		2.31055459		1.13583785		 0.00049670		 0.00000966		 0.00012500	
O		2.69369856		7.21966868		5.20754931		-0.00049670		-0.00000966		-0.00012500	
O		6.72699291		6.82405655		2.73497544		-0.00025634		 0.00020498		-0.00015869	
O		4.56842034		2.70616575		3.60841172		 0.00025634		-0.00020498		 0.00015869	
O		2.98584210		5.03377342		5.38302712		 0.00012318		 0.00003910		-0.00018820	
O		8.30957115		4.49645082		0.96036004		-0.00012318		-0.00003910		 0.00018820	
O		4.27627680		9.08678313		4.10408763		-0.00023835		 0.00003582		-0.00027576	
O		7.01913548		0.44344014		2.23929759		 0.00023835		-0.00003582		 0.00027576	
O		9.11677680		4.71728314		3.40496841		 0.00025034		-0.00016039		-0.00013733	
O		2.17863644		4.81294110		2.93841778		-0.00025034		 0.00016039		 0.00013733	
O		7.82634210		9.40327341		6.08214731		 0.00011905		-0.00008498		-0.00005828	
O		3.46907115		0.12695083		0.26123985		-0.00011905		 0.00008498		 0.00005828	
O		1.88649291		2.45455656		2.03585525		 0.00036478		-0.00029471		-0.00017819	
O		9.40892034		7.07566671		4.30753191		-0.00036478		 0.00029471		 0.00017819	
O		3.76121275		6.68005458		1.83495804		 0.00054672		 0.00016506		 0.00009752	
O		7.53419856		2.85016869		4.50842815		-0.00054672		-0.00016506		-0.00009752	
O		6.45436530		3.98686911		2.56531979		 0.00013331		 0.00042585		-0.00016322	
O		4.84104795		5.54335512		3.77806737		-0.00013331		-0.00042585		 0.00016322	
O		8.87434133		8.11900163		1.78089546		 0.00019970		-0.00016221		-0.00043486	
O		2.42107095		1.41122067		4.56249073		-0.00019970		 0.00016221		 0.00043486	
Mg		0.40360283		0.99305471		1.36352722		 0.00006703		-0.00059636		 0.00021628	
Mg		1.21081042		8.53716856		4.97985993		-0.00006703		 0.00059636		-0.00021628	
Mg		5.24410283		5.36255470		2.06264741		 0.00054506		-0.00016344		-0.00005736	
Mg		6.05131042		4.16766857		4.28073974		-0.00054506		 0.00016344		 0.00005736	
Mg		0.32288265		6.18815523		1.95381458		 0.00031078		 0.00015382		 0.00004790	
Mg		1.29152963		3.34206901		4.38957161		-0.00031078		-0.00015382		-0.00004790	
Mg		5.32482398		1.89777708		1.74920955		-0.00020883		 0.00010200		-0.00003326	
Mg		5.97058927		7.63244716		4.59417664		 0.00020883		-0.00010200		 0.00003326	
