# total energy = -24713.2080508 eV	

CRYSTAL	
PRIMVEC	
		9.68100001		0.00000000		0.00000000	
		0.00000000		8.73899998		0.69912310	
		1.61441324		0.39561407		4.94515161	
PRIMCOORD
   40 1	
Si		2.35750744		3.66250818		1.28061430		-0.00020335		 0.00022164		-0.00026465	
Si		8.93790581		5.47210393		4.36365267		 0.00020335		-0.00022164		 0.00026465	
Si		3.29020015		8.07077767		2.11479799		-0.00024234		 0.00022349		 0.00001710	
Si		8.00521310		1.06383444		3.52946897		 0.00024234		-0.00022349		-0.00001710	
Si		8.13069919		3.70127768		1.76523838		-0.00017551		 0.00002088		 0.00011991	
Si		3.16471309		5.43333443		3.87902858		 0.00017551		-0.00002088		-0.00011991	
Si		7.19800744		8.03200817		1.63017391		-0.00028063		-0.00021935		 0.00003350	
Si		4.09740580		1.10260394		4.01409305		 0.00028063		 0.00021935		-0.00003350	
O		4.03384133		3.70994120		0.78814473		-0.00021682		 0.00005135		-0.00039410	
O		7.26157192		5.42467091		4.85612223		 0.00021682		-0.00005135		 0.00039410	
O		1.61386530		8.19812542		2.62124886		-0.00011444		 0.00060683		 0.00033312	
O		9.68154698		0.93648670		3.02301810		 0.00011444		-0.00060683		-0.00033312	
O		8.60171275		2.24765229		0.96105804		 0.00004306		-0.00017548		 0.00039993	
O		2.69369856		6.88695982		4.68320892		-0.00004306		 0.00017548		-0.00039993	
O		6.72699291		6.68915375		2.21063505		-0.00018723		-0.00038945		-0.00001945	
O		4.56842034		2.44545836		3.43363191		 0.00018723		 0.00038945		 0.00001945	
O		2.98584210		4.65794055		5.04045815		-0.00031988		-0.00045191		-0.00012567	
O		8.30957115		4.47667060		0.60380881		 0.00031988		 0.00045191		 0.00012567	
O		4.27627680		8.86919685		3.41196002		-0.00026018		-0.00059676		 0.00055092	
O		7.01913548		0.26541526		2.23230694		 0.00026018		 0.00059676		-0.00055092	
O		9.11677680		4.49969686		3.06240041		-0.00014082		-0.00042206		 0.00042522	
O		2.17863644		4.63491525		2.58186655		 0.00014082		 0.00042206		-0.00042522	
O		7.82634210		9.02744247		5.39001777		 0.00013293		-0.00042929		 0.00002968	
O		3.46907115		0.10717061		0.25424920		-0.00013293		 0.00042929		-0.00002968	
O		1.88649291		2.31965376		1.86107544		 0.00025225		 0.00038526		-0.00022268	
O		9.40892034		6.81495835		3.78319152		-0.00025225		-0.00038526		 0.00022268	
O		3.76121275		6.61715325		1.31061765		 0.00013669		 0.00034290		 0.00006965	
O		7.53419856		2.51745983		4.33364834		-0.00013669		-0.00034290		-0.00006965	
O		6.45436530		3.82862542		2.27168925		 0.00009219		 0.00045173		-0.00017907	
O		4.84104795		5.30598765		3.37257772		-0.00009219		-0.00045173		 0.00017907	
O		8.87434133		8.07944120		1.13770531		-0.00041214		-0.00025739		-0.00003100	
O		2.42107095		1.05517091		4.50656165		 0.00041214		 0.00025739		 0.00003100	
Mg		0.40360283		0.89415168		1.29990659		 0.00017419		-0.00036884		 0.00094064	
Mg		1.21081042		8.24046043		4.34436037		-0.00017419		 0.00036884		-0.00094064	
Mg		5.24410283		5.26365167		1.64946717		 0.00044433		-0.00033099		 0.00077496	
Mg		6.05131042		3.87096044		3.99479979		-0.00044433		 0.00033099		-0.00077496	
Mg		0.32288265		6.10903338		1.47142197		 0.00031459		 0.00025574		 0.00044255	
Mg		1.29152963		3.02557970		4.17284500		-0.00031459		-0.00025574		-0.00044255	
Mg		5.32482398		1.77909383		1.61637655		-0.00054733		-0.00011188		 0.00059495	
Mg		5.97058927		7.35551828		4.02789042		 0.00054733		 0.00011188		-0.00059495	
