# total energy = -20631.2484976 eV	

CRYSTAL	
PRIMVEC	
		10.20141391		0.00000000		1.63223077	
		0.00000000		5.98347901		0.00000000	
		0.76085916		0.00000000		4.75534134	
PRIMCOORD
   28 1	
Mg		0.00000000		0.00000000		0.00000000		0.00000000		0.00000000		0.00000000	
Mg		5.48113240		0.00000000		3.19378296		0.00000000		0.00000000		0.00000000	
Mg		0.00000000		2.99173950		0.00000000		0.00000000		0.00000000		0.00000000	
Mg		5.48113240		2.99173950		3.19378296		0.00000000		0.00000000		0.00000000	
Mg		3.58323784		1.49586975		5.16753615		-0.00017744		0.00000000		-0.00055087	
Mg		7.37902593		4.48761029		1.22002977		 0.00017744		0.00000000		 0.00055087	
Mg		2.64581394		4.48761029		2.70074577		 0.00020216		0.00000000		-0.00049301	
Mg		8.31645087		1.49586975		3.68681912		-0.00020216		0.00000000		 0.00049301	
Si		1.28336083		1.49586975		2.18110583		-0.00022892		-0.00000000		-0.00066885	
Si		9.67890398		4.48761029		4.20646008		 0.00022892		-0.00000000		 0.00066885	
Si		4.84662853		4.48761029		5.06803052		 0.00015954		-0.00000000		 0.00008488	
Si		6.11563628		1.49586975		1.31953540		-0.00015954		-0.00000000		-0.00008488	
O		1.51673147		1.49586975		3.78877426		 0.00027976		0.00000000		-0.00066573	
O		9.44553437		4.48761029		2.59879165		-0.00027976		0.00000000		 0.00066573	
O		4.36811076		4.48761029		1.92819276		 0.00050202		0.00000000		-0.00007624	
O		6.59415405		1.49586975		4.45937315		-0.00050202		0.00000000		 0.00007624	
O		4.72723541		1.49586975		1.78084662		 0.00035905		0.00000000		-0.00053636	
O		6.23502939		4.48761029		4.60671930		-0.00035905		0.00000000		 0.00053636	
O		1.09034681		4.48761029		3.51574745		 0.00045086		0.00000000		 0.00018444	
O		9.87191800		1.49586975		2.87181950		-0.00045086		0.00000000		-0.00018444	
O		1.87113478		0.19865173		1.58659699		-0.00032848		 0.00003007		-0.00085202	
O		9.09113003		5.78482830		4.80096892		 0.00032848		-0.00003007		 0.00085202	
O		4.03272815		5.78482830		4.24925279		 0.00029688		 0.00036869		 0.00041959	
O		6.92953563		0.19865173		2.13831312		-0.00029688		-0.00036869		-0.00041959	
O		9.09113003		3.19039227		4.80096892		 0.00032848		 0.00003007		 0.00085202	
O		1.87113478		2.79308777		1.58659699		-0.00032848		-0.00003007		-0.00085202	
O		6.92953563		2.79308777		2.13831312		-0.00029688		 0.00036869		-0.00041959	
O		4.03272815		3.19039227		4.24925279		 0.00029688		-0.00036869		 0.00041959	
