# total energy = -20634.5996914 eV	

CRYSTAL	
PRIMVEC	
		10.20141117		0.00000000		-1.22416687	
		0.00000000		5.98348356		0.00000000	
		-0.57064085		0.00000000		4.75534041	
PRIMCOORD
   28 1	
Mg		0.00000000		0.00000000		0.00000000		0.00000000		0.00000000		0.00000000	
Mg		4.81538516		0.00000000		1.76558471		0.00000000		0.00000000		0.00000000	
Mg		0.00000000		2.99173972		0.00000000		0.00000000		0.00000000		0.00000000	
Mg		4.81538516		2.99173972		1.76558471		0.00000000		0.00000000		0.00000000	
Mg		2.26306119		1.49587038		4.37545773		-0.00041870		0.00000000		-0.00028398	
Mg		7.36770913		4.48761010		-0.84428728		 0.00041870		0.00000000		 0.00028398	
Mg		1.99138440		4.48761010		2.06462686		-0.00012900		0.00000000		 0.00002693	
Mg		7.63938489		1.49587038		1.46654359		 0.00012900		0.00000000		-0.00002693	
Si		0.71561131		1.49587038		1.91260495		 0.00013387		0.00000000		-0.00082274	
Si		8.91515798		4.48761010		1.61856550		-0.00013387		0.00000000		 0.00082274	
Si		3.61313092		4.48761010		3.90833345		-0.00000618		0.00000000		-0.00056302	
Si		6.01763734		1.49587038		-0.37716299		 0.00000618		0.00000000		 0.00056302	
O		0.49773847		1.49587038		3.52712740		 0.00047268		0.00000000		-0.00057266	
O		9.13303184		4.48761010		0.00404305		-0.00047268		0.00000000		 0.00057266	
O		4.01486458		4.48761010		0.76164047		-0.00050903		0.00000000		-0.00042493	
O		5.61590471		1.49587038		2.76952998		 0.00050903		0.00000000		 0.00042493	
O		4.43284136		1.49587038		0.50432449		-0.00000969		0.00000000		 0.00021860	
O		5.19792793		4.48761010		3.02684699		 0.00000969		0.00000000		-0.00021860	
O		0.13020586		4.48761010		3.36407160		-0.00065091		0.00000000		-0.00014502	
O		9.50056343		1.49587038		0.16709783		 0.00065091		0.00000000		 0.00014502	
O		1.50124502		0.19865214		1.12186066		 0.00022572		-0.00017995		-0.00005099	
O		8.12952324		5.78482730		2.40930980		-0.00022572		 0.00017995		 0.00005099	
O		2.99709073		5.78482730		3.28579047		-0.00066096		-0.00003152		 0.00062401	
O		6.63367753		0.19865214		0.24537998		 0.00066096		 0.00003152		-0.00062401	
O		8.12952324		3.19039187		2.40930980		-0.00022572		-0.00017995		 0.00005099	
O		1.50124502		2.79308758		1.12186066		 0.00022572		 0.00017995		-0.00005099	
O		6.63367753		2.79308758		0.24537998		 0.00066096		-0.00003152		-0.00062401	
O		2.99709073		3.19039187		3.28579047		-0.00066096		 0.00003152		 0.00062401	
