# total energy = -9215.09224094 eV

CRYSTAL
PRIMVEC
		5.32599971		0.00000000		0.00000000
		-2.66299986		4.61244890		0.00000000
		0.00000000		0.00000000		6.92359724
PRIMECORD
   18 1
Mg		1.76716670		0.00000000		3.15023775		 0.00004457		-0.00000000		-0.00028546
Mg		-0.88358282		1.53041110		3.15023775		-0.00002229		 0.00003860		-0.00028546
Mg		1.77941704		3.08203993		3.15023775		-0.00002229		-0.00003860		-0.00028546
Si		0.00000000		3.07496806		0.51234573		0.00000000		-0.00000000		-0.00009460
Si		2.66299986		1.53748403		0.51234573		0.00000000		0.00000000		-0.00009460
H		3.10505783		0.00000000		5.06807486		-0.00008476		-0.00000000		 0.00014529
H		-1.55252892		2.68905891		5.06807486		 0.00004239		-0.00007342		 0.00014529
H		1.11047094		1.92339212		5.06807486		 0.00004239		 0.00007342		 0.00014529
H		0.00000000		0.00000000		1.36394911		-0.00000000		0.00000000		-0.00015603
O		0.00000000		3.07496806		2.01546002		0.00000000		0.00000000		-0.00013339
O		2.66299986		1.53748403		2.01546002		0.00000000		0.00000000		-0.00013339
O		2.70028185		0.00000000		6.86821057		 0.00046497		-0.00000000		 0.00014934
O		-1.35014093		2.33851279		6.86821057		-0.00023248		 0.00040267		 0.00014934
O		1.31285893		2.27393771		6.86821057		-0.00023248		-0.00040267		 0.00014934
O		3.53646381		0.00000000		4.07107701		 0.00057261		0.00000000		 0.00023753
O		-1.76823190		3.06266767		4.07107701		-0.00028630		 0.00049589		 0.00023753
O		0.89476795		1.54978390		4.07107701		-0.00028630		-0.00049589		 0.00023753
O		0.00000000		0.00000000		2.10477384		-0.00000000		-0.00000000		-0.00012804
