# total energy = -9214.84743514 eV

CRYSTAL
PRIMVEC
		5.32599971		0.00000000		0.00000000
		-2.66299986		4.61244890		0.00000000
		0.00000000		0.00000000		6.74140011
PRIMECORD
   18 1
Mg		1.76716670		0.00000000		3.06733697		 0.00017396		-0.00000000		 0.00017429
Mg		-0.88358282		1.53041110		3.06733697		-0.00008698		 0.00015066		 0.00017429
Mg		1.77941704		3.08203993		3.06733697		-0.00008698		-0.00015066		 0.00017429
Si		0.00000000		3.07496806		0.49886402		0.00000000		0.00000000		-0.00027533
Si		2.66299986		1.53748403		0.49886402		0.00000000		0.00000000		-0.00027533
H		3.10505783		0.00000000		4.93470490		 0.00019384		-0.00000000		-0.00003754
H		-1.55252892		2.68905891		4.93470490		-0.00009692		 0.00016787		-0.00003754
H		1.11047094		1.92339212		4.93470490		-0.00009692		-0.00016787		-0.00003754
H		0.00000000		0.00000000		1.32805614		0.00000000		0.00000000		 0.00074841
O		0.00000000		3.07496806		1.96242211		0.00000000		-0.00000000		-0.00024957
O		2.66299986		1.53748403		1.96242211		0.00000000		0.00000000		-0.00024957
O		2.70028185		0.00000000		6.68746851		-0.00000090		0.00000000		-0.00023142
O		-1.35014093		2.33851279		6.68746851		 0.00000045		-0.00000078		-0.00023142
O		1.31285893		2.27393771		6.68746851		 0.00000045		 0.00000078		-0.00023142
O		3.53646381		0.00000000		3.96394292		-0.00036657		-0.00000000		 0.00000872
O		-1.76823190		3.06266767		3.96394292		 0.00018328		-0.00031746		 0.00000872
O		0.89476795		1.54978390		3.96394292		 0.00018328		 0.00031746		 0.00000872
O		0.00000000		0.00000000		2.04938610		0.00000000		0.00000000		 0.00055923
