# total energy = -9215.22142805 eV

CRYSTAL
PRIMVEC
		5.32599971		0.00000000		0.00000000
		-2.66299986		4.61244890		0.00000000
		0.00000000		0.00000000		7.10579969
PRIMECORD
   18 1
Mg		1.76716670		0.00000000		3.23313907		-0.00004261		0.00000000		-0.00005037
Mg		-0.88358282		1.53041110		3.23313907		 0.00002131		-0.00003691		-0.00005037
Mg		1.77941704		3.08203993		3.23313907		 0.00002131		 0.00003691		-0.00005037
Si		0.00000000		3.07496806		0.52582903		0.00000000		0.00000000		-0.00012680
Si		2.66299986		1.53748403		0.52582903		-0.00000000		0.00000000		-0.00012680
H		3.10505783		0.00000000		5.20144588		-0.00024007		-0.00000000		 0.00059998
H		-1.55252892		2.68905891		5.20144588		 0.00012004		-0.00020791		 0.00059998
H		1.11047094		1.92339212		5.20144588		 0.00012004		 0.00020791		 0.00059998
H		0.00000000		0.00000000		1.39984316		-0.00000000		0.00000000		-0.00008771
O		0.00000000		3.07496806		2.06849792		0.00000000		-0.00000000		-0.00019105
O		2.66299986		1.53748403		2.06849792		0.00000000		0.00000000		-0.00019105
O		2.70028185		0.00000000		7.04895369		 0.00064369		0.00000000		-0.00015350
O		-1.35014093		2.33851279		7.04895369		-0.00032184		 0.00055745		-0.00015350
O		1.31285893		2.27393771		7.04895369		-0.00032184		-0.00055745		-0.00015350
O		3.53646381		0.00000000		4.17821002		 0.00094092		0.00000000		-0.00027356
O		-1.76823190		3.06266767		4.17821002		-0.00047047		 0.00081486		-0.00027356
O		0.89476795		1.54978390		4.17821002		-0.00047047		-0.00081486		-0.00027356
O		0.00000000		0.00000000		2.16016264		0.00000000		0.00000000		 0.00035579
