# total energy = -10314.1862035 eV	

CRYSTAL	
PRIMVEC	
		3.51000009		0.00000000		0.00000000	
		0.00000000		3.51000009		0.00000000	
		0.00000000		0.00000000		10.45000034	
PRIMCOORD
   14 1	
Si		0.00000000		0.00000000		0.00000000		0.00000000		0.00000000		0.00000000	
Si		1.75500004		1.75500004		5.22500017		0.00000000		0.00000000		0.00000000	
Mg		0.00000000		0.00000000		3.90830016		0.00000000		0.00000000		-0.00052738	
Mg		0.00000000		0.00000000		6.54170019		0.00000000		0.00000000		 0.00052738	
Mg		1.75500004		1.75500004		9.13330033		0.00000000		0.00000000		-0.00037650	
Mg		1.75500004		1.75500004		1.31670001		0.00000000		0.00000000		 0.00037650	
O		0.00000000		1.75500004		0.00000000		0.00000000		0.00000000		0.00000000	
O		1.75500004		0.00000000		0.00000000		0.00000000		0.00000000		0.00000000	
O		1.75500004		0.00000000		5.22500017		0.00000000		0.00000000		0.00000000	
O		0.00000000		1.75500004		5.22500017		0.00000000		0.00000000		0.00000000	
O		0.00000000		0.00000000		1.72111521		0.00000000		0.00000000		-0.00069058	
O		0.00000000		0.00000000		8.72888514		0.00000000		0.00000000		 0.00069058	
O		1.75500004		1.75500004		6.94611502		0.00000000		0.00000000		-0.00053497	
O		1.75500004		1.75500004		3.50388497		0.00000000		0.00000000		 0.00053497	
