# total energy = -49447.8493146 eV

CRYSTAL
PRIMVEC
		13.89908786		-0.00007012		0.00000000
		-0.00002805		5.07033499		0.00000000
		0.00000000		0.00000000		8.68410933
PRIMECORD
   70 1
Mg		2.41383466		1.70567176		0.05490817		-0.00000251		-0.00011692		-0.00024678
Mg		11.48522796		3.36459872		0.05490817		 0.00000273		 0.00011679		-0.00024689
Mg		9.36339822		0.82943964		4.39696564		-0.00005290		 0.00012091		-0.00024804
Mg		4.53566440		4.24083084		4.39696704		 0.00005301		-0.00012112		-0.00024793
Mg		2.45584635		4.28221146		1.58217081		-0.00042628		-0.00054636		-0.00002298
Mg		11.44321626		0.78805903		1.58217081		 0.00042696		 0.00054633		-0.00002282
Mg		9.40540991		3.32324195		5.92422547		-0.00047551		 0.00053286		-0.00001123
Mg		4.49365270		1.74702994		5.92422407		 0.00047507		-0.00053276		-0.00001130
Mg		4.49269486		1.74809155		2.87013914		 0.00068681		 0.00007885		-0.00015943
Mg		9.40636775		3.32217893		2.87013914		-0.00068648		-0.00007838		-0.00015957
Mg		11.44225842		0.78699741		7.21219240		 0.00063773		-0.00006393		-0.00014673
Mg		2.45680419		4.28327447		7.21219381		-0.00063782		 0.00006429		-0.00014647
Mg		0.00000000		2.53516890		7.19091519		 0.00000077		 0.00000022		-0.00010700
Mg		6.94954393		-0.00003226		2.84886333		-0.00000089		 0.00000020		-0.00012461
Mg		0.00000000		2.53516750		1.60439885		 0.00000043		 0.00000022		 0.00041325
Mg		6.94954393		-0.00003226		5.94644931		-0.00000058		 0.00000018		 0.00043020
Mg		0.00000000		0.00000000		5.77621478		-0.00000018		-0.00000077		-0.00007916
Mg		6.94953131		2.53513524		1.43416572		-0.00000007		-0.00000066		-0.00010438
Mg		0.00000000		0.00000000		3.02375102		-0.00000051		-0.00000067		-0.00057859
Mg		6.94953131		2.53513664		7.36580008		 0.00000026		-0.00000057		-0.00055255
Si		0.00000000		0.00000000		0.05654477		 0.00000139		-0.00000032		-0.00008981
Si		6.94953131		2.53513524		4.39860364		-0.00000171		-0.00000022		-0.00009250
Si		5.22712611		0.07689219		0.05663732		-0.00011714		-0.00001293		-0.00021764
Si		8.67193790		4.99337409		0.05663873		 0.00011259		 0.00001962		-0.00022062
Si		12.17671071		2.45821781		4.39869760		-0.00028982		-0.00006939		-0.00022483
Si		1.72235050		2.61204987		4.39869620		 0.00029470		 0.00007729		-0.00022188
O		5.74496370		3.56870682		8.74122488		-0.00019724		-0.00017392		-0.00026519
O		8.15410032		1.50156647		8.74122347		 0.00019684		 0.00016987		-0.00026403
O		12.69449641		4.03668909		4.39916740		-0.00017457		 0.00024614		-0.00026471
O		1.20456620		1.03358420		4.39916600		 0.00017539		-0.00025082		-0.00026582
O		1.10459472		3.52182459		0.05656720		 0.00013573		-0.00002846		-0.00031259
O		12.79446929		1.54844589		0.05656720		-0.00013727		 0.00002883		-0.00031304
O		8.05413164		4.08363583		4.39862468		 0.00014788		 0.00002893		-0.00031184
O		5.84493098		0.98663465		4.39862327		-0.00014618		-0.00002850		-0.00031136
O		3.42338873		0.11185402		3.01988601		 0.00034551		-0.00059482		 0.00070322
O		10.47568791		4.95841085		3.01989582		-0.00038788		 0.00061054		 0.00067703
O		10.37278400		2.42320409		7.36202341		 0.00079179		 0.00074419		 0.00044733
O		3.52626599		2.64706359		7.36201500		-0.00075352		-0.00073000		 0.00047105
O		3.52607807		2.64529796		1.42768664		-0.00023248		-0.00012325		 0.00041903
O		10.37298174		2.42497111		1.42768523		 0.00024118		 0.00012632		 0.00042539
O		10.47550700		4.96017507		5.76980441		 0.00011336		 0.00001093		 0.00022507
O		3.42356123		0.11009541		5.76980581		-0.00012797		-0.00000565		 0.00021506
O		1.02566064		0.74380349		1.32558771		-0.00034042		 0.00001181		 0.00019792
O		12.87340197		4.32646699		1.32558771		 0.00033946		-0.00001184		 0.00019751
O		7.97519755		1.79132053		5.66764799		-0.00033475		-0.00000537		 0.00018746
O		5.92386506		3.27894995		5.66764799		 0.00033593		 0.00000526		 0.00018774
O		5.92545257		3.27871435		3.12795635		-0.00070789		 0.00034145		 0.00011382
O		7.97361004		1.79155613		3.12795635		 0.00070976		-0.00034158		 0.00011386
O		12.87498949		4.32670259		7.47001663		-0.00070558		-0.00034848		 0.00010215
O		1.02407312		0.74356929		7.47001663		 0.00070392		 0.00034845		 0.00010198
O		5.75142736		0.85563086		1.42291287		 0.00005098		-0.00027114		 0.00016638
O		8.14763525		4.21463962		1.42291287		-0.00005047		 0.00026988		 0.00016886
O		12.70096007		1.67944968		5.76497314		 0.00007062		 0.00027277		 0.00015840
O		1.19810254		3.39082220		5.76497454		-0.00007086		-0.00027423		 0.00015572
O		1.19788938		3.39000039		3.03191439		-0.00003718		 0.00005853		-0.00037646
O		12.70117323		1.68027009		3.03191439		 0.00003673		-0.00005876		-0.00037635
O		8.14742349		4.21546142		7.37397607		-0.00001733		-0.00006258		-0.00039084
O		5.75163912		0.85481046		7.37397607		 0.00001809		 0.00006263		-0.00039119
O		3.58192864		0.05241891		0.05538358		 0.00002059		-0.00019068		-0.00028260
O		10.31713397		5.01785017		0.05538498		-0.00001760		 0.00018974		-0.00028207
O		10.53141788		2.48267987		4.39744245		 0.00016048		 0.00020186		-0.00028067
O		3.36764614		2.58759201		4.39744245		-0.00016404		-0.00020297		-0.00028124
H		4.31472329		2.95283446		0.93121040		 0.00003113		-0.00037213		 0.00050936
H		9.58434212		2.11743602		0.93121181		-0.00003993		 0.00036878		 0.00050359
H		11.26434996		4.65256004		5.27321178		-0.00026635		 0.00048638		 0.00069554
H		2.63470844		0.41771184		5.27320757		 0.00028047		-0.00049182		 0.00070474
H		2.63303959		0.42194849		3.51191803		 0.00028987		-0.00061751		 0.00001822
H		11.26601040		4.64832620		3.51190962		-0.00025122		 0.00060224		 0.00004278
H		9.58269571		2.11320919		7.85389977		-0.00010011		 0.00046620		 0.00026168
H		4.31637953		2.95706690		7.85390679		 0.00006514		-0.00048001		 0.00023945
