# total energy = -41275.4890122 eV

CRYSTAL
PRIMVEC
		5.76466383		0.00000000		0.00000000
		0.00000000		11.55904738		0.00000000
		0.00000000		0.00000000		8.36930490
PRIMECORD
   56 1
Mg		0.00000000		0.00000000		0.00000000		-0.00000001		-0.00000002		-0.00000006
Mg		0.00000000		5.77952255		0.00000000		 0.00000002		 0.00000005		-0.00000006
Mg		2.88233191		5.77952255		4.18465131		-0.00000000		 0.00000004		 0.00000006
Mg		2.88233191		0.00000000		4.18465131		-0.00000001		-0.00000001		 0.00000005
Mg		0.00000000		2.88976127		8.12328927		 0.00000001		 0.00000002		-0.00034767
Mg		0.00000000		8.66928439		0.24601335		-0.00000000		-0.00000001		 0.00034762
Mg		2.88233191		8.66928439		3.93863796		 0.00000001		 0.00000001		-0.00034759
Mg		2.88233191		2.88976127		4.43066466		-0.00000001		-0.00000000		 0.00034772
Mg		1.44116567		1.47617523		2.09232566		-0.00000003		-0.00026006		 0.00000001
Mg		4.32349758		10.08287043		6.27697697		-0.00000001		 0.00026005		-0.00000001
Mg		4.32349758		4.30334788		2.09232566		 0.00000003		 0.00026005		-0.00000002
Mg		1.44116567		7.25569778		6.27697697		 0.00000002		-0.00026007		 0.00000002
Mg		4.32349758		7.25569835		6.27697697		-0.00000002		-0.00026006		 0.00000001
Mg		1.44116567		4.30334788		2.09232566		-0.00000003		 0.00026004		-0.00000002
Mg		1.44116567		10.08287043		6.27697697		0.00000000		 0.00026008		-0.00000001
Mg		4.32349758		1.47617523		2.09232566		 0.00000003		-0.00026007		0.00000000
Si		0.00000000		1.38671237		5.15812103		 0.00000005		-0.00050159		 0.00016502
Si		0.00000000		10.17233330		3.21118159		 0.00000002		 0.00050133		-0.00016473
Si		0.00000000		4.39281075		5.15812103		 0.00000006		 0.00050157		 0.00016503
Si		0.00000000		7.16623491		3.21118159		-0.00000004		-0.00050130		-0.00016476
Si		2.88233191		7.16623491		0.97346972		-0.00000001		-0.00050123		 0.00016477
Si		2.88233191		4.39281075		7.39583347		-0.00000007		 0.00050157		-0.00016510
Si		2.88233191		10.17233330		0.97346972		 0.00000006		 0.00050130		 0.00016475
Si		2.88233191		1.38671237		7.39583347		-0.00000002		-0.00050158		-0.00016508
O		0.00000000		2.88976127		1.80981562		 0.00000002		-0.00000001		-0.00017680
O		0.00000000		8.66928439		6.55948700		-0.00000003		-0.00000001		 0.00017693
O		2.88233191		8.66928439		5.99446750		 0.00000003		-0.00000003		-0.00017694
O		2.88233191		2.88976127		2.37483569		-0.00000001		 0.00000003		 0.00017681
O		0.00000000		2.88976127		5.99301570		0.00000000		-0.00000000		 0.00056728
O		0.00000000		8.66928439		2.37628692		-0.00000000		-0.00000000		-0.00056728
O		2.88233191		8.66928439		1.80836439		 0.00000001		 0.00000004		 0.00056725
O		2.88233191		2.88976127		6.56093823		-0.00000000		-0.00000003		-0.00056724
O		0.00000000		11.43989783		2.14281671		0.00000000		-0.00013596		-0.00013412
O		0.00000000		0.11914784		6.22648591		-0.00000001		 0.00013624		 0.00013394
O		0.00000000		5.89867096		2.14281671		-0.00000000		 0.00013596		-0.00013409
O		0.00000000		5.66037528		6.22648591		-0.00000001		-0.00013623		 0.00013397
O		2.88233191		5.66037528		6.32746802		 0.00000002		-0.00013623		-0.00013393
O		2.88233191		5.89867039		2.04183460		 0.00000001		 0.00013598		 0.00013407
O		2.88233191		0.11914784		6.32746802		-0.00000001		 0.00013626		-0.00013391
O		2.88233191		11.43989783		2.04183460		-0.00000001		-0.00013601		 0.00013408
O		1.50666245		1.41976132		8.30836237		-0.00004047		-0.00018523		-0.00004648
O		4.25800137		10.13928435		0.06094025		 0.00004039		 0.00018531		 0.00004661
O		4.25800137		4.35976180		8.30836237		 0.00004049		 0.00018526		-0.00004641
O		1.50666245		7.19928386		0.06094025		-0.00004040		-0.00018533		 0.00004655
O		4.25800137		7.19928386		0.06094025		 0.00004039		-0.00018533		 0.00004653
O		1.50666245		4.35976180		8.30836237		-0.00004044		 0.00018523		-0.00004645
O		1.50666245		10.13928435		0.06094025		-0.00004042		 0.00018527		 0.00004654
O		4.25800137		1.41976132		8.30836237		 0.00004048		-0.00018523		-0.00004647
O		4.38899380		7.19928386		4.12371106		-0.00004036		-0.00018534		-0.00004657
O		1.37566946		4.35976180		4.24559156		 0.00004043		 0.00018526		 0.00004647
O		1.37566946		10.13928435		4.12371106		 0.00004039		 0.00018533		-0.00004653
O		4.38899380		1.41976132		4.24559213		-0.00004050		-0.00018528		 0.00004645
O		1.37566946		1.41976132		4.24559213		 0.00004047		-0.00018528		 0.00004644
O		4.38899380		10.13928435		4.12371106		-0.00004038		 0.00018533		-0.00004654
O		4.38899380		4.35976180		4.24559156		-0.00004049		 0.00018527		 0.00004643
O		1.37566946		7.19928386		4.12371106		 0.00004037		-0.00018532		-0.00004655
