# total energy = -41274.6737992 eV

CRYSTAL
PRIMVEC
		5.64299870		0.00000000		0.00000000
		0.00000000		11.31514164		0.00000000
		0.00000000		0.00000000		8.12288644
PRIMECORD
   56 1
Mg		0.00000000		0.00000000		0.00000000		-0.00000000		-0.00000002		-0.00000010
Mg		0.00000000		5.65756968		0.00000000		0.00000000		 0.00000001		-0.00000009
Mg		2.82149821		5.65756968		4.06144208		-0.00000002		-0.00000002		 0.00000009
Mg		2.82149821		0.00000000		4.06144208		 0.00000002		 0.00000001		 0.00000010
Mg		0.00000000		2.82878513		7.90028877		-0.00000000		-0.00000003		-0.00005495
Mg		0.00000000		8.48635481		0.22259482		-0.00000000		 0.00000005		 0.00005475
Mg		2.82149821		8.48635481		3.83884669		0.00000000		 0.00000003		-0.00005468
Mg		2.82149821		2.82878513		4.28403690		-0.00000001		-0.00000001		 0.00005495
Mg		1.41074910		1.44526524		2.03072104		 0.00000001		-0.00047521		 0.00000001
Mg		4.23224731		9.86987470		6.09216255		0.00000000		 0.00047521		0.00000000
Mg		4.23224731		4.21230444		2.03072104		0.00000000		 0.00047514		 0.00000002
Mg		1.41074910		7.10283549		6.09216255		-0.00000000		-0.00047518		-0.00000002
Mg		4.23224731		7.10283549		6.09216255		-0.00000000		-0.00047515		-0.00000001
Mg		1.41074910		4.21230444		2.03072104		 0.00000001		 0.00047516		 0.00000004
Mg		1.41074910		9.86987470		6.09216255		 0.00000001		 0.00047522		0.00000000
Mg		4.23224731		1.44526524		2.03072104		-0.00000002		-0.00047519		 0.00000001
Si		0.00000000		1.35473061		5.01532163		 0.00000009		-0.00012959		-0.00025089
Si		0.00000000		9.96040932		3.10756253		-0.00000010		 0.00012946		 0.00025109
Si		0.00000000		4.30283964		5.01532163		 0.00000009		 0.00012955		-0.00025088
Si		0.00000000		7.01230030		3.10756253		-0.00000012		-0.00012942		 0.00025104
Si		2.82149821		7.01230030		0.95387955		 0.00000009		-0.00012943		-0.00025101
Si		2.82149821		4.30283964		7.16900404		-0.00000007		 0.00012954		 0.00025083
Si		2.82149821		9.96040932		0.95387955		 0.00000012		 0.00012946		-0.00025108
Si		2.82149821		1.35473061		7.16900461		-0.00000010		-0.00012957		 0.00025089
O		0.00000000		2.82878513		1.79285384		-0.00000006		 0.00000001		-0.00033309
O		0.00000000		8.48635481		6.33003032		 0.00000007		-0.00000004		 0.00033304
O		2.82149821		8.48635481		5.85429535		-0.00000007		-0.00000005		-0.00033301
O		2.82149821		2.82878513		2.26858824		 0.00000008		 0.00000001		 0.00033311
O		0.00000000		2.82878513		5.85438367		 0.00000001		 0.00000001		 0.00047606
O		0.00000000		8.48635481		2.26849993		-0.00000003		-0.00000004		-0.00047603
O		2.82149821		8.48635481		1.79294215		 0.00000004		-0.00000000		 0.00047595
O		2.82149821		2.82878513		6.32994201		-0.00000003		 0.00000004		-0.00047612
O		0.00000000		11.21936732		2.06255921		0.00000000		 0.00016202		-0.00020061
O		0.00000000		0.09577261		6.06032438		-0.00000001		-0.00016186		 0.00020055
O		0.00000000		5.75334230		2.06255921		-0.00000002		-0.00016207		-0.00020061
O		0.00000000		5.56179764		6.06032438		 0.00000002		 0.00016193		 0.00020053
O		2.82149821		5.56179764		6.12400129		-0.00000002		 0.00016187		-0.00020048
O		2.82149821		5.75334230		1.99888230		 0.00000002		-0.00016200		 0.00020051
O		2.82149821		0.09577261		6.12400129		-0.00000002		-0.00016188		-0.00020056
O		2.82149821		11.21936732		1.99888230		 0.00000004		 0.00016201		 0.00020060
O		1.46403778		1.39311555		8.07081937		-0.00047083		 0.00002537		-0.00012085
O		4.17895807		9.92202438		0.05206422		 0.00047075		-0.00002537		 0.00012101
O		4.17895807		4.26445413		8.07081937		 0.00047096		-0.00002536		-0.00012080
O		1.46403835		7.05068581		0.05206422		-0.00047092		 0.00002540		 0.00012093
O		4.17895807		7.05068581		0.05206422		 0.00047082		 0.00002538		 0.00012102
O		1.46403835		4.26445413		8.07081937		-0.00047086		-0.00002538		-0.00012084
O		1.46403835		9.92202438		0.05206479		-0.00047089		-0.00002545		 0.00012092
O		4.17895807		1.39311555		8.07081937		 0.00047091		 0.00002543		-0.00012077
O		4.28553656		7.05068524		4.00937729		-0.00047076		 0.00002539		-0.00012104
O		1.35745986		4.26445413		4.11350630		 0.00047084		-0.00002538		 0.00012089
O		1.35745986		9.92202438		4.00937729		 0.00047087		-0.00002543		-0.00012092
O		4.28553656		1.39311555		4.11350630		-0.00047093		 0.00002541		 0.00012075
O		1.35745986		1.39311555		4.11350630		 0.00047083		 0.00002537		 0.00012082
O		4.28553599		9.92202438		4.00937729		-0.00047079		-0.00002539		-0.00012096
O		4.28553656		4.26445413		4.11350630		-0.00047089		-0.00002539		 0.00012080
O		1.35745986		7.05068524		4.00937729		 0.00047088		 0.00002544		-0.00012092
