# total energy = -13384.6468563 eV	

CRYSTAL	
PRIMVEC	
		3.05300001		0.00000000		0.00000000	
		-1.52650001		2.64397739		0.00000000	
		0.00000000		0.00000000		19.11875007	
PRIMCOORD
   18 1	
O		0.00000000		0.00000000		5.95166690		0.00000000		0.00000000		 0.00023849	
O		0.00000000		0.00000000		13.16708195		0.00000000		-0.00000000		-0.00023849	
O		1.52650001		0.88132508		8.18664915		0.00000000		-0.00000000		-0.00012245	
O		0.00000000		1.76264986		10.93210093		0.00000000		-0.00000000		 0.00012245	
O		1.52650001		0.88132508		1.37272589		0.00000000		0.00000000		-0.00006244	
O		0.00000000		1.76264986		17.74602418		-0.00000000		-0.00000000		 0.00006244	
O		0.00000000		1.76264986		3.60770813		0.00000000		-0.00000000		 0.00010600	
O		1.52650001		0.88132508		15.51104103		0.00000000		0.00000000		-0.00010600	
H		1.52650001		0.88132508		9.12729097		0.00000000		-0.00000000		-0.00019966	
H		0.00000000		1.76264986		9.99145911		0.00000000		0.00000000		 0.00019966	
H		1.52650001		0.88132508		0.43208407		0.00000000		-0.00000000		-0.00023555	
H		0.00000000		1.76264986		18.68666600		0.00000000		0.00000000		 0.00023555	
Mg		0.00000000		1.76264986		7.12938211		0.00000000		-0.00000000		-0.00013886	
Mg		1.52650001		0.88132508		11.98936796		0.00000000		0.00000000		 0.00013886	
Mg		0.00000000		0.00000000		2.42999292		0.00000000		-0.00000000		 0.00015826	
Mg		0.00000000		0.00000000		16.68875715		0.00000000		-0.00000000		-0.00015826	
Mg		1.52650001		0.88132508		4.78159915		0.00000000		0.00000000		 0.00031034	
Mg		0.00000000		1.76264986		14.33715000		-0.00000000		-0.00000000		-0.00031034	
