# total energy = -13384.4607988 eV	

CRYSTAL	
PRIMVEC	
		3.05300001		0.00000000		0.00000000	
		-1.52650001		2.64397739		0.00000000	
		0.00000000		0.00000000		20.62812580	
PRIMCOORD
   18 1	
O		0.00000000		0.00000000		6.42153612		0.00000000		0.00000000		-0.00072782	
O		0.00000000		0.00000000		14.20658907		0.00000000		-0.00000000		 0.00072782	
O		1.52650001		0.88132508		8.83296314		-0.00000000		-0.00000000		-0.00066525	
O		0.00000000		1.76264986		11.79516205		0.00000000		0.00000000		 0.00066525	
O		1.52650001		0.88132508		1.48109915		-0.00000000		-0.00000000		-0.00046612	
O		0.00000000		1.76264986		19.14702604		0.00000000		0.00000000		 0.00046612	
O		0.00000000		1.76264986		3.89252708		0.00000000		0.00000000		 0.00041457	
O		1.52650001		0.88132508		16.73559719		0.00000000		0.00000000		-0.00041457	
H		1.52650001		0.88132508		9.84786705		0.00000000		-0.00000000		-0.00004048	
H		0.00000000		1.76264986		10.78025814		0.00000000		0.00000000		 0.00004048	
H		1.52650001		0.88132508		0.46619585		0.00000000		-0.00000000		 0.00055926	
H		0.00000000		1.76264986		20.16192904		0.00000000		0.00000000		-0.00055926	
Mg		0.00000000		1.76264986		7.69222801		0.00000000		-0.00000000		 0.00071931	
Mg		1.52650001		0.88132508		12.93589719		-0.00000000		-0.00000000		-0.00071931	
Mg		0.00000000		0.00000000		2.62183490		0.00000000		-0.00000000		-0.00091100	
Mg		0.00000000		0.00000000		18.00629121		0.00000000		0.00000000		 0.00091100	
Mg		1.52650001		0.88132508		5.15909406		0.00000000		0.00000000		-0.00021712	
Mg		0.00000000		1.76264986		15.46903113		0.00000000		0.00000000		 0.00021712	
