# total energy = -9138.46661849 eV	

CRYSTAL	
PRIMVEC	
		5.33300163		0.85328264		0.00000000	
		-1.92754026		4.19187632		0.00000000	
		0.00000000		0.00000000		7.32400165	
PRIMCOORD
   14 1	
Mg		1.77428899		0.28388602		3.33974352		-0.00029741		-0.00056749		-0.00030676	
Mg		-0.64129193		1.39463598		3.33974352		-0.00041485		 0.00032202		-0.00013151	
Mg		2.27246485		3.36663101		3.33974352		-0.00006704		-0.00006193		-0.00011437	
Si		0.49264109		3.07900870		0.56394772		-0.00004487		 0.00028487		 0.00010732	
Si		2.91282082		1.96614486		0.56394772		-0.00025160		-0.00026145		-0.00028399	
O		0.49264109		3.07900870		2.13714272		 0.00036910		-0.00002819		 0.00047533	
O		2.91282082		1.96614486		2.13714272		 0.00011419		-0.00007218		-0.00002213	
O		2.67183305		0.42749303		7.27273156		 0.00015836		 0.00028185		 0.00000086	
O		-0.96569607		2.10012866		7.27273156		-0.00008694		 0.00016747		-0.00054877	
O		1.69932600		2.51753186		7.27273156		-0.00036537		-0.00004012		-0.00037367	
O		3.53044577		0.56487072		4.33580792		 0.00010944		-0.00012225		-0.00025545	
O		-1.27602996		2.77501970		4.33580792		 0.00021269		 0.00020742		 0.00081635	
O		1.15104609		1.70526205		4.33580792		 0.00029501		 0.00044247		 0.00027155	
O		0.00000000		0.00000000		2.21917161		 0.00026930		-0.00055250		 0.00036523	
