# total energy = -9139.0096503 eV	

CRYSTAL	
PRIMVEC	
		5.33300036		-0.21331980		0.00000000	
		-2.85124160		4.72517663		0.00000000	
		0.00000000		0.00000000		7.32399762	
PRIMCOORD
   14 1	
Mg		1.77428883		-0.07097175		3.33974383		-0.00020672		 0.00004667		-0.00016440	
Mg		-0.94860809		1.57206520		3.33974383		-0.00005174		 0.00003038		 0.00065764	
Mg		1.65607802		3.01076017		3.33974383		-0.00003135		 0.00051214		-0.00043895	
Si		-0.12316005		3.07900884		0.56394821		 0.00027111		-0.00017142		-0.00032118	
Si		2.60491989		1.43284479		0.56394821		-0.00039097		 0.00002394		 0.00011936	
O		-0.12316005		3.07900884		2.13714332		-0.00002557		-0.00025031		-0.00078799	
O		2.60491989		1.43284479		2.13714332		-0.00031099		-0.00023893		-0.00056703	
O		2.67183318		-0.10687286		7.27273213		 0.00024150		 0.00001345		-0.00023342	
O		-1.42847197		2.36731233		7.27273213		-0.00015350		 0.00001535		 0.00038616	
O		1.23839809		2.25141522		7.27273213		 0.00005094		-0.00009441		 0.00031960	
O		3.53044591		-0.14121816		4.33580821		 0.00019242		-0.00002834		 0.00035622	
O		-1.88752104		3.12806524		4.33580821		 0.00007805		 0.00040156		-0.00044252	
O		0.83883496		1.52500707		4.33580821		 0.00015692		 0.00004601		 0.00049366	
O		0.00000000		0.00000000		2.21917227		 0.00017989		-0.00030610		 0.00062284	
