# total energy = -20630.3440292 eV

CRYSTAL
PRIMVEC
		10.05000369		-1.60800507		0.00000000
		-0.92000432		5.75000408		0.00000000
		0.00000000		0.00000000		4.86999863
PRIMECORD
   28 1
Si		3.34664967		-0.53546362		4.37666917		-0.00030314		-0.00023033		 0.00011706
Si		6.70334994		-1.07253636		0.49333149		 0.00030314		 0.00023033		-0.00011706
Si		7.91165037		1.53553589		4.37666917		-0.00028156		-0.00026622		 0.00013955
Si		1.21835001		2.60646415		0.49333149		 0.00028156		 0.00026622		-0.00013955
Mg		0.00000000		0.00000000		0.00000000		0.00000000		0.00000000		0.00000000
Mg		4.56499968		2.07099951		0.00000000		0.00000000		0.00000000		0.00000000
Mg		5.02499981		-0.80400050		2.43500033		0.00000000		0.00000000		0.00000000
Mg		-0.46000012		2.87500001		2.43500033		0.00000000		0.00000000		0.00000000
Mg		2.28249984		1.03550026		2.43500033		-0.00000246		 0.00001650		-0.00000434
Mg		6.84749953		3.10649977		2.43500033		 0.00000246		-0.00001650		 0.00000434
Mg		7.30749965		0.23149976		2.43500033		 0.00000936		-0.00002410		 0.00000199
Mg		1.82249972		3.91050027		2.43500033		-0.00000936		 0.00002410		-0.00000199
O		8.23497042		-1.31759502		1.08113967		 0.00001174		 0.00065123		 0.00053219
O		1.81503021		-0.29040496		3.78885997		-0.00001174		-0.00065123		-0.00053219
O		2.74997049		2.36140548		1.08113967		 0.00000229		 0.00070230		 0.00054154
O		6.38002990		1.78059455		3.78885997		-0.00000229		-0.00070230		-0.00054154
O		3.35770483		-0.53723253		1.14591137		-0.00055836		 0.00011132		-0.00009301
O		6.69229479		-1.07076745		3.72408930		 0.00055836		-0.00011132		 0.00009301
O		7.92270451		1.53376698		1.14591137		-0.00055348		 0.00005393		-0.00009804
O		1.20729486		2.60823305		3.72408930		 0.00055348		-0.00005393		 0.00009804
O		0.66386403		1.40821941		1.09721148		-0.00051019		 0.00008444		-0.00010362
O		8.46613635		2.73378062		3.77278918		 0.00051019		-0.00008444		 0.00010362
O		8.88878385		0.09223147		3.77278918		 0.00007463		-0.00009925		 0.00022024
O		0.24121552		4.04976755		1.09721148		-0.00007463		 0.00009925		-0.00022024
O		5.22886372		3.47921892		1.09721148		-0.00050314		 0.00005551		-0.00009648
O		3.90113565		0.66278111		3.77278918		 0.00050314		-0.00005551		 0.00009648
O		3.40378392		3.77123197		3.77278918		 0.00005841		-0.00006078		 0.00021985
O		5.72621647		0.37076908		1.09721148		-0.00005841		 0.00006078		-0.00021985
