# total energy = -20635.0477735 eV

CRYSTAL
PRIMVEC
		10.04999687		0.80399773		0.00000000
		0.45999620		5.74999781		0.00000000
		0.00000000		0.00000000		4.87000114
PRIMECORD
   28 1
Si		3.34665002		0.26773240		4.37666846		-0.00029382		-0.00022954		-0.00045924
Si		6.70334988		0.53626835		0.49333067		 0.00029382		 0.00022954		 0.00045924
Si		8.60164957		3.54473219		4.37666846		-0.00028954		-0.00020748		-0.00045638
Si		1.90834954		3.00926839		0.49333067		 0.00028954		 0.00020748		 0.00045638
Mg		0.00000000		0.00000000		0.00000000		0.00000000		0.00000000		0.00000000
Mg		5.25499956		3.27699979		0.00000000		0.00000000		0.00000000		0.00000000
Mg		5.02499944		0.40199987		2.43499956		0.00000000		0.00000000		0.00000000
Mg		0.23000011		2.87499991		2.43499956		0.00000000		0.00000000		0.00000000
Mg		2.62750028		1.63849989		2.43499956		-0.00000604		-0.00001637		 0.00000682
Mg		7.88249984		4.91549968		2.43499956		 0.00000604		 0.00001637		-0.00000682
Mg		7.65249973		2.04049977		2.43499956		 0.00000577		 0.00001854		-0.00001120
Mg		2.85750040		4.51349981		2.43499956		-0.00000577		-0.00001854		 0.00001120
O		8.23496934		0.65879823		1.08113977		 0.00042807		-0.00090501		-0.00012405
O		1.81502955		0.14520152		3.78886036		-0.00042807		 0.00090501		 0.00012405
O		3.43997001		3.13179827		1.08113977		 0.00042852		-0.00092606		-0.00011912
O		7.07003011		3.42220231		3.78886036		-0.00042852		 0.00092606		 0.00011912
O		3.35770505		0.26861560		1.14591127		 0.00067294		 0.00028517		-0.00033058
O		6.69229485		0.53538415		3.72408887		-0.00067294		-0.00028517		 0.00033058
O		8.61270461		3.54561538		1.14591127		 0.00067025		 0.00029468		-0.00033694
O		1.89729451		3.00838419		3.72408887		-0.00067025		-0.00029468		 0.00033694
O		1.03687831		1.62722810		1.09721065		 0.00045629		 0.00017508		-0.00008744
O		9.47312182		4.92677148		3.77278848		-0.00045629		-0.00017508		 0.00008744
O		9.26179780		2.28522178		3.77278848		 0.00021456		-0.00045243		 0.00014796
O		1.24820232		4.26877780		1.09721065		-0.00021456		 0.00045243		-0.00014796
O		6.29187786		4.90422788		1.09721065		 0.00046313		 0.00019455		-0.00009095
O		4.21812226		1.64977169		3.77278848		-0.00046313		-0.00019455		 0.00009095
O		4.46679746		4.75822181		3.77278848		 0.00020435		-0.00047550		 0.00014252
O		6.04320165		1.79577776		1.09721065		-0.00020435		 0.00047550		-0.00014252
