# total energy = -20630.3440292 eV

CRYSTAL
PRIMVEC
		10.05000369		1.60800507		0.00000000
		0.92000432		5.75000408		0.00000000
		0.00000000		0.00000000		4.86999863
PRIMECORD
   28 1
Si		3.34664967		0.53546362		4.37666917		-0.00030282		 0.00023034		 0.00011679
Si		6.70334994		1.07253636		0.49333149		 0.00030282		-0.00023034		-0.00011679
Si		8.83164960		4.21446413		4.37666917		-0.00028198		 0.00026613		 0.00013982
Si		2.13835026		3.14353587		0.49333149		 0.00028198		-0.00026613		-0.00013982
Mg		0.00000000		0.00000000		0.00000000		0.00000000		0.00000000		0.00000000
Mg		5.48499993		3.67899949		0.00000000		0.00000000		0.00000000		0.00000000
Mg		5.02499981		0.80400050		2.43500033		0.00000000		0.00000000		0.00000000
Mg		0.46000012		2.87500001		2.43500033		0.00000000		0.00000000		0.00000000
Mg		2.74249997		1.83949974		2.43500033		-0.00000928		-0.00002417		-0.00000194
Mg		8.22749990		5.51850025		2.43500033		 0.00000928		 0.00002417		 0.00000194
Mg		7.76749977		2.64350024		2.43500033		 0.00000236		 0.00001653		 0.00000435
Mg		3.20250009		4.71449975		2.43500033		-0.00000236		-0.00001653		-0.00000435
O		8.23497042		1.31759502		1.08113967		 0.00001196		-0.00065128		 0.00053221
O		1.81503021		0.29040496		3.78885997		-0.00001196		 0.00065128		-0.00053221
O		3.66996972		3.38859453		1.08113967		 0.00000215		-0.00070234		 0.00054147
O		7.30003014		3.96940546		3.78885997		-0.00000215		 0.00070234		-0.00054147
O		3.35770483		0.53723253		1.14591137		-0.00055827		-0.00011131		-0.00009291
O		6.69229479		1.07076745		3.72408930		 0.00055827		 0.00011131		 0.00009291
O		8.84270476		4.21623303		1.14591137		-0.00055337		-0.00005387		-0.00009822
O		2.12729510		3.14176696		3.72408930		 0.00055337		 0.00005387		 0.00009822
O		1.16121576		1.70023145		1.09721148		-0.00007480		-0.00009933		-0.00022021
O		9.80878410		5.65776753		3.77278918		 0.00007480		 0.00009933		 0.00022021
O		9.38613558		3.01621939		3.77278918		 0.00051039		 0.00008426		 0.00010357
O		1.58386428		4.34178060		1.09721148		-0.00051039		-0.00008426		-0.00010357
O		6.64621570		5.37923195		1.09721148		-0.00005835		-0.00006062		-0.00021994
O		4.32378417		1.97876906		3.77278918		 0.00005835		 0.00006062		 0.00021994
O		4.82113590		5.08721890		3.77278918		 0.00050312		 0.00005564		 0.00009656
O		6.14886396		2.27078109		1.09721148		-0.00050312		-0.00005564		-0.00009656
