# total energy = -20633.0545932 eV

CRYSTAL
PRIMVEC
		10.05000123		1.20599772		0.00000000
		0.69000338		5.75000116		0.00000000
		0.00000000		0.00000000		4.86999582
PRIMECORD
   28 1
Si		3.34664999		0.40159840		4.37666891		 0.00002388		 0.00002508		-0.00002720
Si		6.70335022		0.80440235		0.49333096		-0.00002388		-0.00002508		 0.00002720
Si		8.71664926		3.87959784		4.37666891		 0.00002828		 0.00004957		-0.00004361
Si		2.02335028		3.07640204		0.49333096		-0.00002828		-0.00004957		 0.00004361
Mg		0.00000000		0.00000000		0.00000000		0.00000000		0.00000000		0.00000000
Mg		5.37000028		3.47799944		0.00000000		0.00000000		0.00000000		0.00000000
Mg		5.02499960		0.60299987		2.43499993		0.00000000		0.00000000		0.00000000
Mg		0.34499966		2.87499957		2.43499993		0.00000000		0.00000000		0.00000000
Mg		2.68499963		1.73900022		2.43499993		-0.00000862		-0.00001595		-0.00000143
Mg		8.05499991		5.21699966		2.43499993		 0.00000862		 0.00001595		 0.00000143
Mg		7.70999923		2.34200010		2.43499993		-0.00000204		 0.00001122		 0.00000380
Mg		3.03000031		4.61399979		2.43499993		 0.00000204		-0.00001122		-0.00000380
O		8.23496985		0.98819642		1.08113958		-0.00007978		 0.00000841		 0.00028445
O		1.81503036		0.21780433		3.78886029		 0.00007978		-0.00000841		-0.00028445
O		3.55496992		3.26019612		1.08113958		-0.00009253		-0.00002164		 0.00028890
O		7.18502963		3.69580377		3.78886029		 0.00009253		 0.00002164		-0.00028890
O		3.35770535		0.40292541		1.14591090		-0.00045040		-0.00020641		 0.00008057
O		6.69229486		0.80307534		3.72408897		 0.00045040		 0.00020641		-0.00008057
O		8.72770462		3.88092485		1.14591090		-0.00044361		-0.00016822		 0.00008697
O		2.01229493		3.07507504		3.72408897		 0.00044361		 0.00016822		-0.00008697
O		1.09904659		1.66373026		1.09721145		-0.00000657		-0.00012964		 0.00006112
O		9.64095296		5.29226963		3.77278842		 0.00000657		 0.00012964		-0.00006112
O		9.32396621		2.65072013		3.77278842		-0.00033222		 0.00023638		 0.00007977
O		1.41603334		4.30527976		1.09721145		 0.00033222		-0.00023638		-0.00007977
O		6.46904687		5.14172969		1.09721145		 0.00000225		-0.00010691		 0.00005884
O		4.27095268		1.81427019		3.77278842		-0.00000225		 0.00010691		-0.00005884
O		4.64396728		4.92271982		3.77278842		-0.00033655		 0.00021583		 0.00007794
O		6.09603226		2.03328007		1.09721145		 0.00033655		-0.00021583		-0.00007794
