# total energy = -35726.9335396 eV

CRYSTAL
PRIMVEC
		7.87286046		0.00003144		0.00000000
		-3.93639879		6.81802396		0.00000000
		0.00000000		-0.00000786		9.77576042
PRIMECORD
   46 1
Mg		1.28517865		3.21919911		3.67384041		 0.00020292		-0.00056393		 0.00002992
Mg		0.50595020		6.32141809		3.67384277		 0.00038818		 0.00045446		 0.00002553
Mg		-1.79109584		4.09545195		3.67386714		-0.00058881		 0.00010835		 0.00002777
Mg		2.65127359		3.59885708		8.56171590		-0.00020350		 0.00056176		 0.00002817
Mg		3.43051933		0.49662946		8.56172219		-0.00038692		-0.00045464		 0.00002677
Mg		5.72754808		2.72259795		8.56174027		 0.00058880		-0.00010674		 0.00002644
Mg		0.65828517		1.69300637		1.12355438		 0.00030056		 0.00003013		 0.00008750
Mg		2.14115114		6.54162595		1.12356224		-0.00017223		 0.00024612		 0.00008962
Mg		-2.79935613		5.40140774		1.12355438		-0.00012544		-0.00027117		 0.00009061
Mg		3.27819851		5.12504903		6.01143616		-0.00030053		-0.00002985		 0.00008955
Mg		1.79530896		0.27641530		6.01142988		 0.00017040		-0.00024257		 0.00009522
Mg		6.73580051		1.41662173		6.01144560		 0.00012523		 0.00027243		 0.00009185
Mg		0.00003066		4.54539909		1.00793252		 0.00000068		-0.00000281		-0.00031898
Mg		3.93642551		2.27264845		5.89583945		-0.00000034		 0.00000560		-0.00030589
Si		3.93642080		2.27269404		1.61029165		-0.00000306		-0.00000111		-0.00000960
Si		0.00003773		4.54535586		6.49814278		 0.00000157		 0.00000159		-0.00000541
Si		-0.00001415		0.00000000		3.88116604		 0.00000183		-0.00000073		-0.00005312
Si		0.00001100		-0.00001179		8.76904782		-0.00000065		 0.00000046		-0.00005319
O		1.48248632		0.19210258		9.49147931		-0.00036462		-0.00018207		-0.00044019
O		6.96525917		1.18781391		9.49150132		 0.00034142		-0.00022380		-0.00044081
O		3.36161202		5.43812791		9.49148482		 0.00002506		 0.00040654		-0.00044059
O		2.45396827		6.62594260		4.60359675		 0.00036464		 0.00018172		-0.00044054
O		-3.02880064		5.63024228		4.60362190		-0.00034101		 0.00022366		-0.00044098
O		0.57483315		1.37992670		4.60360225		-0.00002417		-0.00040581		-0.00043904
O		3.42482533		0.61646837		4.93454052		 0.00035268		-0.00003960		 0.00008190
O		5.62650864		2.65777720		4.93456489		-0.00014217		 0.00032524		 0.00007926
O		2.75788755		3.54379490		4.93457982		-0.00021227		-0.00028564		 0.00008048
O		0.51164499		6.20159568		9.82242387		-0.00035487		 0.00003773		 0.00008048
O		-1.69005640		4.16029707		9.82239793		 0.00014439		-0.00032526		 0.00008143
O		1.17854661		3.27423771		9.82240815		 0.00021007		 0.00028715		 0.00008409
O		2.37730520		2.16230871		2.16611074		 0.00005551		-0.00004131		-0.00012481
O		4.81155827		0.97763106		2.16608323		 0.00000922		 0.00006795		-0.00012153
O		4.62040364		3.67809362		2.16612803		-0.00006375		-0.00002544		-0.00012288
O		1.55915647		4.65573805		7.05395086		-0.00005413		 0.00004092		-0.00012395
O		-0.87508795		5.84041726		7.05396108		-0.00000950		-0.00006806		-0.00012524
O		-0.68394433		3.13995549		7.05397758		 0.00006219		 0.00002513		-0.00012401
O		-0.36825819		3.05963424		2.44166612		-0.00004860		-0.00008701		 0.00034882
O		1.47089238		4.96933178		2.44166219		 0.00009976		 0.00000004		 0.00034855
O		-1.10256896		5.60711650		2.44167398		-0.00005135		 0.00008429		 0.00034830
O		4.30470807		3.75844003		7.32956283		 0.00004847		 0.00008770		 0.00034722
O		2.46554728		1.84871498		7.32955812		-0.00009877		-0.00000368		 0.00034616
O		5.03902512		1.21094284		7.32956362		 0.00005462		-0.00008688		 0.00034762
O		3.93642866		2.27270269		-0.04135932		-0.00000021		 0.00000197		 0.00047500
O		0.00002515		4.54535979		4.84649573		-0.00000114		-0.00000169		 0.00047524
O		0.00001100		0.00000000		2.23787134		-0.00000099		-0.00000235		-0.00005161
O		-0.00001022		-0.00001415		7.12575234		 0.00000086		 0.00000119		-0.00005111
