# total energy = -35726.2635818 eV

CRYSTAL
PRIMVEC
		7.56954722		0.00000000		0.00000000
		-3.78477361		6.55541921		-0.00000786
		0.00000000		-0.00000786		9.57607736
PRIMECORD
   46 1
Mg		1.21579657		3.06424116		3.59245330		 0.00058169		-0.00027409		 0.00025003
Mg		0.52316426		6.07620896		3.59244386		-0.00005835		 0.00064242		 0.00025341
Mg		-1.73895218		3.97038358		3.59244544		-0.00052665		-0.00036304		 0.00024719
Mg		2.56897782		3.49115290		8.38050455		-0.00057888		 0.00027824		 0.00024514
Mg		3.26162429		0.47920789		8.38050141		 0.00005273		-0.00064293		 0.00025002
Mg		5.52373129		2.58503170		8.38051084		 0.00052972		 0.00036547		 0.00024822
Mg		0.61032240		1.62563496		1.11934519		 0.00018160		-0.00011086		-0.00072655
Mg		2.07177535		6.27116247		1.11934283		 0.00000033		 0.00021000		-0.00073046
Mg		-2.68208832		5.21404413		1.11934362		-0.00018735		-0.00010123		-0.00072811
Mg		3.17444570		4.92978189		5.90738466		-0.00018079		 0.00011263		-0.00072843
Mg		1.71301083		0.28425123		5.90739409		-0.00000331		-0.00021309		-0.00073143
Mg		6.46685800		1.34137822		5.90740117		 0.00019442		 0.00009788		-0.00072851
Mg		0.00000000		4.37028183		0.96202522		 0.00000092		 0.00000454		 0.00059689
Mg		3.78477204		2.18513423		5.75002067		-0.00000661		-0.00000539		 0.00060158
Si		3.78477597		2.18514209		1.63429386		 0.00000305		-0.00000384		 0.00017625
Si		0.00000000		4.37027161		6.42233490		 0.00000646		 0.00000779		 0.00018026
Si		0.00000000		0.00000000		3.81039661		 0.00000294		-0.00000069		 0.00020481
Si		0.00000000		0.00000000		8.59845573		 0.00000265		-0.00000094		 0.00015855
O		1.45896123		0.21976848		9.32845198		-0.00028165		 0.00020109		-0.00048741
O		6.64973730		1.15360274		9.32844727		-0.00003411		-0.00034354		-0.00048401
O		3.24562229		5.18202756		9.32844098		 0.00031826		 0.00014207		-0.00048502
O		2.32580923		6.33566724		4.54039994		 0.00028587		-0.00020328		-0.00048825
O		-2.86497706		5.40178975		4.54040151		 0.00002969		 0.00035375		-0.00049088
O		0.53916861		1.37337750		4.54040937		-0.00032041		-0.00014821		-0.00049001
O		3.22918876		0.62882398		4.73531022		-0.00027348		-0.00066370		 0.00071031
O		5.41036769		2.48215295		4.73531965		 0.00071455		 0.00009544		 0.00070665
O		2.71475573		3.44443914		4.73532279		-0.00043911		 0.00057055		 0.00070799
O		0.55557542		5.92657008		9.52335912		 0.00027457		 0.00066380		 0.00071143
O		-1.62557758		4.07325761		9.52337248		-0.00071343		-0.00009537		 0.00070823
O		1.07001395		3.11099108		9.52337484		 0.00043827		-0.00057128		 0.00070865
O		2.25663073		1.96706908		2.18730761		 0.00051449		 0.00005336		-0.00029924
O		4.73770840		0.97076195		2.18730918		-0.00030673		 0.00042431		-0.00030035
O		4.35999348		3.61758975		2.18731075		-0.00021121		-0.00047311		-0.00030034
O		1.52815545		4.58835013		6.97535336		-0.00052472		-0.00005544		-0.00030133
O		-0.95292771		5.58465019		6.97535493		 0.00030742		-0.00042285		-0.00030065
O		-0.57520573		2.93782632		6.97536279		 0.00020939		 0.00047080		-0.00029931
O		-0.43308522		2.93823741		2.36017132		 0.00010872		-0.00013231		-0.00008785
O		1.45672733		4.71122705		2.36017603		 0.00006008		 0.00016052		-0.00009058
O		-1.02363425		5.46136374		2.36017446		-0.00016926		-0.00002843		-0.00008920
O		4.21787062		3.61715822		7.14821078		-0.00010884		 0.00013052		-0.00009025
O		2.32807221		1.84418273		7.14821707		-0.00006021		-0.00016011		-0.00009155
O		4.80839843		1.09408219		7.14821472		 0.00016823		 0.00002718		-0.00008972
O		3.78477597		2.18513738		-0.01777685		 0.00000017		 0.00000122		 0.00062391
O		0.00000000		4.37027633		4.77026183		-0.00000033		-0.00000076		 0.00062368
O		0.00000000		0.00000000		2.19348187		 0.00000047		 0.00000090		 0.00034847
O		0.00000000		0.00000000		6.98151348		-0.00000124		 0.00000001		 0.00037785
