# total energy = -35723.7211094 eV

CRYSTAL
PRIMVEC
		7.86029970		0.00000000		0.00000000
		-3.93014985		6.80721605		0.00000000
		0.00000000		0.00000000		9.57299612
PRIMECORD
   46 1
Mg		1.13856520		3.09524297		3.69230583		-0.00061269		-0.00150586		 0.00094757
Mg		0.68030894		6.24562357		3.69230583		 0.00161045		 0.00022233		 0.00094757
Mg		-1.81887414		4.27357185		3.69230583		-0.00099778		 0.00128353		 0.00094757
Mg		2.79158465		3.71197701		8.47880546		 0.00061269		 0.00150586		 0.00094757
Mg		3.24984091		0.56159483		8.47880546		-0.00161045		-0.00022233		 0.00094757
Mg		5.74902399		2.53364656		8.47880546		 0.00099778		-0.00128353		 0.00094757
Mg		0.81196896		1.65960010		1.07887723		 0.00159584		-0.00113972		 0.00040959
Mg		2.08690957		6.68060470		1.07887723		 0.00018911		 0.00195190		 0.00040959
Mg		-2.89887853		5.27423359		1.07887723		-0.00178495		-0.00081218		 0.00040959
Mg		3.11818089		5.14761988		5.86537686		-0.00159584		 0.00113972		 0.00040959
Mg		1.84324028		0.12661371		5.86537686		-0.00018911		-0.00195190		 0.00040959
Mg		6.82902838		1.53298560		5.86537686		 0.00178495		 0.00081218		 0.00040959
Mg		0.00000000		4.53814560		0.98506219		0.00000000		0.00000000		-0.00029013
Mg		3.93014985		2.26907280		5.77156183		-0.00000000		-0.00000000		-0.00029013
Si		3.93014985		2.26907280		1.66665865		0.00000000		0.00000000		-0.00017398
Si		0.00000000		4.53814560		6.45315907		-0.00000000		-0.00000000		-0.00017398
Si		0.00000000		0.00000000		3.84643058		-0.00000000		-0.00000000		-0.00184516
Si		0.00000000		0.00000000		8.63293179		0.00000000		0.00000000		-0.00184516
O		1.46515986		0.18651784		9.34324742		-0.00136169		-0.00075459		-0.00257125
O		6.96619061		1.17560686		9.34324742		 0.00133434		-0.00080196		-0.00257125
O		3.35909908		5.44509450		9.34324742		 0.00002735		 0.00155655		-0.00257125
O		2.46498999		6.62070214		4.55674779		 0.00136169		 0.00075459		-0.00257125
O		-3.03604076		5.63161312		4.55674779		-0.00133434		 0.00080196		-0.00257125
O		0.57105077		1.36212470		4.55674779		-0.00002735		-0.00155655		-0.00257125
O		3.35792003		0.67255318		4.63716101		 0.00103912		 0.00132509		-0.00017132
O		5.59889148		2.57176666		4.63716101		-0.00166713		 0.00023736		-0.00017132
O		2.83363804		3.56289857		4.63716101		 0.00062800		-0.00156245		-0.00017132
O		0.57222982		6.13466601		9.42366065		-0.00103912		-0.00132509		-0.00017132
O		-1.66874163		4.23545175		9.42366065		 0.00166713		-0.00023736		-0.00017132
O		1.09651181		3.24432062		9.42366065		-0.00062800		 0.00156245		-0.00017132
O		2.40878884		2.00608761		2.22093554		 0.00239800		-0.00150190		 0.00243506
O		4.91858254		1.08302904		2.22093554		 0.00010169		 0.00282767		 0.00243506
O		4.46307817		3.71810412		2.22093554		-0.00249968		-0.00132578		 0.00243506
O		1.52136101		4.80113158		7.00743596		-0.00239800		 0.00150190		 0.00243506
O		-0.98843269		5.72419094		7.00743596		-0.00010169		-0.00282767		 0.00243506
O		-0.53292832		3.08911586		7.00743596		 0.00249968		 0.00132578		 0.00243506
O		-0.37690137		2.97271268		2.29560524		 0.00081611		 0.00396328		-0.00135392
O		1.54415588		4.99445644		2.29560524		-0.00384037		-0.00127488		-0.00135392
O		-1.16725529		5.64726848		2.29560524		 0.00302426		-0.00268841		-0.00135392
O		4.30705122		3.83450651		7.08210488		-0.00081611		-0.00396328		-0.00135392
O		2.38599397		1.81276275		7.08210488		 0.00384037		 0.00127488		-0.00135392
O		5.09740514		1.15994993		7.08210488		-0.00302426		 0.00268841		-0.00135392
O		3.93014985		2.26907280		0.00000000		0.00000000		0.00000000		 0.00280954
O		0.00000000		4.53814560		4.78649963		0.00000000		0.00000000		 0.00280954
O		0.00000000		0.00000000		2.22380769		0.00000000		0.00000000		 0.00041253
O		0.00000000		0.00000000		7.01030811		0.00000000		0.00000000		 0.00041253
