# total energy = -18274.7325995 eV

CRYSTAL
PRIMVEC
		5.33600010		0.00000000		0.00000000
		-2.66800005		4.62110949		0.00000000
		0.00000000		0.00000000		15.34469814
PRIMECORD
   28 1
Mg		1.77155203		0.00000000		3.35741980		 0.00034371		0.00000000		-0.00019176
Mg		-0.88577602		1.53420888		3.35741980		-0.00017186		 0.00029766		-0.00019176
Mg		1.78222403		3.08690220		3.35741980		-0.00017186		-0.00029766		-0.00019176
Mg		3.56444807		0.00000000		11.02977101		-0.00034371		0.00000000		-0.00019176
Mg		-1.78222403		3.08690220		11.02977101		 0.00017186		-0.00029766		-0.00019176
Mg		0.88577602		1.53420888		11.02977101		 0.00017186		 0.00029766		-0.00019176
Si		0.00000000		3.08074126		0.44806500		-0.00000000		-0.00000000		-0.00007471
Si		2.66800005		1.54036983		8.12041620		0.00000000		-0.00000000		-0.00007471
Si		0.00000000		3.08074126		8.12041620		0.00000000		0.00000000		-0.00007471
Si		2.66800005		1.54037090		0.44806500		0.00000000		-0.00000000		-0.00007471
O		0.00000000		3.08074126		2.15746490		-0.00000000		-0.00000000		-0.00055429
O		2.66800005		1.54036983		9.82981504		0.00000000		0.00000000		-0.00055429
O		0.00000000		3.08074126		9.82981504		0.00000000		-0.00000000		-0.00055429
O		2.66800005		1.54037090		2.15746490		0.00000000		-0.00000000		-0.00055429
O		2.63598405		0.00000000		15.20659819		 0.00004094		0.00000000		 0.00052801
O		-1.31799202		2.28282889		15.20659819		-0.00002048		 0.00003546		 0.00052801
O		1.35000803		2.33828327		15.20659819		-0.00002048		-0.00003546		 0.00052801
O		2.70001605		0.00000000		7.53424805		-0.00004094		0.00000000		 0.00052801
O		-1.35000803		2.33828327		7.53424805		 0.00002048		-0.00003546		 0.00052801
O		1.31799202		2.28282889		7.53424805		 0.00002048		 0.00003546		 0.00052801
O		3.55733305		0.00000000		4.38705011		-0.00026874		0.00000000		 0.00008491
O		-1.77866706		3.08074126		4.38705011		 0.00013437		-0.00023273		 0.00008491
O		0.88933299		1.54036983		4.38705011		 0.00013437		 0.00023273		 0.00008491
O		1.77866706		0.00000000		12.05940025		 0.00026874		-0.00000000		 0.00008491
O		-0.88933299		1.54036983		12.05940025		-0.00013437		 0.00023273		 0.00008491
O		1.77866706		3.08074126		12.05940025		-0.00013437		-0.00023273		 0.00008491
O		0.00000000		0.00000000		2.20963711		0.00000000		0.00000000		-0.00000553
O		0.00000000		0.00000000		9.88198725		0.00000000		0.00000000		-0.00000553
