# total energy = -7658.39786312 eV	

CRYSTAL	
PRIMVEC	
		5.54070037		-0.22162779		0.00000000	
		-2.96228657		4.90919868		0.00000000	
		0.00000000		0.00000000		4.84349997	
PRIMCOORD
   15 1	
Mg		0.00000000		0.00000000		0.00000000		0.00000000		0.00000000		0.00000000	
Mg		-0.12795722		3.19892504		0.05279408		-0.00043587		-0.00093634		 0.00024083	
Mg		2.70637102		1.48864807		4.79070589		 0.00043587		 0.00093634		-0.00024083	
O		0.84888580		1.56901587		1.06557010		 0.00026879		-0.00017884		 0.00012998	
O		1.72952800		3.11855724		3.77792986		-0.00026879		 0.00017884		-0.00012998	
O		0.73190183		4.74945732		1.06557010		 0.00003180		 0.00051800		-0.00047283	
O		1.84651307		-0.06188422		3.77792986		-0.00003180		-0.00051800		 0.00047283	
O		-1.96465930		3.27830081		1.06557010		-0.00024793		-0.00031451		-0.00028554	
O		4.54307309		1.40927229		3.77792986		 0.00024793		 0.00031451		 0.00028554	
H		0.71890515		1.64463925		2.04395689		 0.00047319		-0.00077184		 0.00002630	
H		1.85950920		3.04293385		2.79954308		-0.00047319		 0.00077184		-0.00002630	
H		0.74021121		4.60396639		2.04395689		-0.00048645		-0.00028177		 0.00050338	
H		1.83820425		0.08360727		2.79954308		 0.00048645		 0.00028177		-0.00050338	
H		-1.84298692		3.34816891		2.04395689		 0.00012656		-0.00025454		 0.00024261	
H		4.42140238		1.33940420		2.79954308		-0.00012656		 0.00025454		-0.00024261	
