# total energy = -7658.00827154 eV	

CRYSTAL	
PRIMVEC	
		5.54069813		0.44325474		0.00000000	
		-2.38647751		4.57676012		0.00000000	
		0.00000000		0.00000000		4.84350225	
PRIMCOORD
   15 1	
Mg		0.00000000		0.00000000		0.00000000		0.00000000		0.00000000		0.00000000	
Mg		0.25591381		3.19892462		0.05279425		-0.00060541		 0.00004880		 0.00055052	
Mg		2.89830680		1.82108968		4.79070577		 0.00060541		-0.00004880		-0.00055052	
O		1.04155109		1.67858894		1.06557005		-0.00018574		 0.00030272		-0.00055274	
O		2.11267009		3.34142592		3.77792998		 0.00018574		-0.00030272		 0.00055274	
O		1.30626885		4.86025972		1.06557005		-0.00000964		-0.00050722		-0.00004276	
O		1.84795177		0.15975513		3.77792998		 0.00000964		 0.00050722		 0.00004276	
O		-1.58007794		3.05792464		1.06557005		 0.00042555		 0.00002297		-0.00065919	
O		4.73429856		1.96208965		3.77792998		-0.00042555		-0.00002297		 0.00065919	
H		0.92003386		1.73895207		2.04395713		 0.00002940		 0.00012922		 0.00086688	
H		2.23418675		3.28106168		2.79954290		-0.00002940		-0.00012922		-0.00086688	
H		1.29713084		4.71506760		2.04395713		 0.00021280		 0.00003272		-0.00033632	
H		1.85708978		0.30494725		2.79954290		-0.00021280		-0.00003272		 0.00033632	
H		-1.44942271		3.14275308		2.04395713		-0.00034505		-0.00009635		 0.00081938	
H		4.60364499		1.87726066		2.79954290		 0.00034505		 0.00009635		-0.00081938	
