# total energy = -7657.36343818 eV	

CRYSTAL	
PRIMVEC	
		5.54070079		0.66488276		0.00000000	
		-2.19454558		4.46594511		0.00000000	
		0.00000000		0.00000000		4.84350164	
PRIMCOORD
   15 1	
Mg		0.00000000		0.00000000		0.00000000		0.00000000		0.00000000		0.00000000	
Mg		0.38387081		3.19892507		0.05279385		-0.00069663		 0.00055459		-0.00030070	
Mg		2.96228496		1.93190391		4.79070612		 0.00069663		-0.00055459		 0.00030070	
O		1.10577181		1.71511290		1.06557025		 0.00029578		-0.00006179		 0.00083333	
O		2.24038395		3.41571608		3.77792972		-0.00029578		 0.00006179		-0.00083333	
O		1.49772479		4.89719395		1.06557025		-0.00003875		-0.00012590		-0.00030436	
O		1.84843210		0.23363504		3.77792972		 0.00003875		 0.00012590		 0.00030436	
O		-1.45188418		2.98446669		1.06557025		 0.00007897		-0.00003362		 0.00039349	
O		4.79803995		2.14636174		3.77792972		-0.00007897		 0.00003362		-0.00039349	
H		0.98707787		1.77039006		2.04395712		 0.00015881		-0.00004621		-0.00059334	
H		2.35907902		3.36043781		2.79954284		-0.00015881		 0.00004621		 0.00059334	
H		1.48277086		4.75210168		2.04395712		 0.00027341		-0.00035226		-0.00040667	
H		1.86338491		0.37872675		2.79954284		-0.00027341		 0.00035226		 0.00040667	
H		-1.31823574		3.07428181		2.04395712		-0.00032465		-0.00034446		-0.00064768	
H		4.66439207		2.05654718		2.79954284		 0.00032465		 0.00034446		 0.00064768	
