# total energy = -7657.06579926 eV	

CRYSTAL	
PRIMVEC	
		5.54070206		-0.88651480		0.00000000	
		-3.53809133		5.24164338		0.00000000	
		0.00000000		0.00000000		4.84350262	
PRIMCOORD
   15 1	
Mg		0.00000000		0.00000000		0.00000000		0.00000000		0.00000000		0.00000000	
Mg		-0.51182817		3.19892511		0.05279384		-0.00075912		 0.00042947		 0.00025092	
Mg		2.51443610		1.15620628		4.79070597		 0.00075912		-0.00042947		-0.00025092	
O		0.65622104		1.45944303		1.06557013		 0.00005217		-0.00017377		-0.00067739	
O		1.34638688		2.89568779		3.77793024		-0.00005217		 0.00017377		 0.00067739	
O		0.15753480		4.63865385		1.06557013		-0.00079717		-0.00091858		-0.00039141	
O		1.84507313		-0.28352302		3.77793024		 0.00079717		 0.00091858		 0.00039141	
O		-2.34923981		3.49867676		1.06557013		-0.00000463		-0.00033459		 0.00001258	
O		4.35184773		0.85645406		3.77793024		 0.00000463		 0.00033459		-0.00001258	
H		0.51777602		1.55032495		2.04395722		-0.00015825		-0.00010446		-0.00014611	
H		1.48483191		2.80480587		2.79954315		 0.00015825		 0.00010446		 0.00014611	
H		0.18329120		4.49286380		2.04395722		-0.00020897		 0.00026444		 0.00050323	
H		1.81931672		-0.13773297		2.79954315		 0.00020897		-0.00026444		-0.00050323	
H		-2.23655118		3.55358490		2.04395722		-0.00021761		 0.00028019		-0.00043045	
H		4.23915911		0.80154593		2.79954315		 0.00021761		-0.00028019		 0.00043045	
