# total energy = -11134.2860803 eV	

CRYSTAL	
PRIMVEC	
		9.58656000		0.00000000		-0.00000744	
		0.00000000		5.64454154		0.00000000	
		-0.00000744		0.00000000		10.92739096	
PRIMCOORD
   12 1	
Ca		0.33266924		1.41113427		7.36414766		-0.00017299		-0.00000002		-0.00014951	
Ca		9.25390490		4.23340355		3.56323734		 0.00017752		 0.00000004		 0.00014752	
Ca		4.46061597		4.23340355		1.90041721		 0.00017330		-0.00000001		-0.00013904	
Ca		5.12596040		1.41113501		9.02696556		-0.00017877		-0.00000004		 0.00013843	
Si		2.72341113		1.41113501		4.45702196		 0.00020707		0.00000000		 0.00043731	
Si		6.86312952		4.23340355		6.47038909		-0.00020453		 0.00000001		-0.00043956	
Si		2.06983315		4.23340355		9.92076060		-0.00020167		-0.00000000		 0.00043202	
Si		7.51669783		1.41113501		1.00667649		 0.00019982		 0.00000001		-0.00043332	
Mg		1.25241253		1.41113427		0.58997604		 0.00011047		-0.00000001		-0.00075275	
Mg		8.33411547		4.23340355		10.33736655		-0.00010820		0.00000000		 0.00075848	
Mg		3.54082877		4.23340355		6.05369756		-0.00013342		0.00000000		-0.00042488	
Mg		6.04575355		1.41113427		4.87367926		 0.00013141		0.00000000		 0.00042527	
