# total energy = -10831.7719598 eV	

CRYSTAL	
PRIMVEC	
		3.03200014		0.00000000		0.00000000	
		-1.51600007		2.62578792		0.00000000	
		0.00000000		0.00000000		15.70800139	
PRIMCOORD
   13 1	
Mg		1.51600007		0.87526294		2.61800023		-0.00000000		0.00000000		 0.00015159	
Mg		0.00000000		1.75052619		13.09000056		0.00000000		-0.00000000		-0.00015159	
Mg		0.00000000		0.00000000		0.00000000		0.00000000		0.00000000		0.00000000	
Mg		0.00000000		1.75052619		5.23600016		0.00000000		0.00000000		-0.00047805	
Mg		1.51600007		0.87526294		10.47199941		0.00000000		-0.00000000		 0.00047805	
O		1.51600007		0.87526294		14.39900082		0.00000000		0.00000000		 0.00016040	
O		0.00000000		1.75052619		1.30899996		0.00000000		-0.00000000		-0.00016040	
O		1.51600007		0.87526294		6.39315635		0.00000000		0.00000000		-0.00003471	
O		0.00000000		1.75052619		9.31484444		0.00000000		0.00000000		 0.00003471	
O		0.00000000		0.00000000		11.78414144		0.00000000		0.00000000		-0.00018297	
O		0.00000000		0.00000000		3.92385904		0.00000000		-0.00000000		 0.00018297	
H		1.51600007		0.87526294		7.43302628		0.00000000		-0.00000000		 0.00023502	
H		0.00000000		1.75052619		8.27497542		0.00000000		0.00000000		-0.00023502	
