# total energy = -10831.3855351 eV	

CRYSTAL	
PRIMVEC	
		3.03200014		0.00000000		0.00000000	
		-1.51600007		2.62578792		0.00000000	
		0.00000000		0.00000000		13.46399990	
PRIMCOORD
   13 1	
Mg		1.51600007		0.87526294		2.24399998		0.00000000		0.00000000		 0.00012600	
Mg		0.00000000		1.75052619		11.22000052		0.00000000		-0.00000000		-0.00012600	
Mg		0.00000000		0.00000000		0.00000000		0.00000000		0.00000000		0.00000000	
Mg		0.00000000		1.75052619		4.48800027		0.00000000		0.00000000		 0.00007667	
Mg		1.51600007		0.87526294		8.97599932		0.00000000		-0.00000000		-0.00007667	
O		1.51600007		0.87526294		12.34200066		0.00000000		0.00000000		-0.00055960	
O		0.00000000		1.75052619		1.12200014		0.00000000		-0.00000000		 0.00055960	
O		1.51600007		0.87526294		5.47984817		0.00000000		0.00000000		-0.00056228	
O		0.00000000		1.75052619		7.98415234		0.00000000		-0.00000000		 0.00056228	
O		0.00000000		0.00000000		10.10069249		0.00000000		0.00000000		 0.00065659	
O		0.00000000		0.00000000		3.36330801		0.00000000		-0.00000000		-0.00065659	
H		1.51600007		0.87526294		6.37116525		0.00000000		-0.00000000		 0.00088085	
H		0.00000000		1.75052619		7.09283647		0.00000000		-0.00000000		-0.00088085	
