# total energy = -38097.7595753 eV	

CRYSTAL	
PRIMVEC	
		5.69209984		0.00000000		0.00000000	
		0.00000000		12.03300230		0.00000000	
		0.00000000		0.00000000		8.25299833	
PRIMCOORD
   58 1	
O		1.53572911		1.47885592		8.19440386		-0.00005742		-0.00001205		-0.00002994	
O		4.15637074		10.55414354		0.05859618		 0.00005742		 0.00001205		 0.00002994	
O		4.15637074		4.53764409		8.19440386		 0.00005742		 0.00001205		-0.00002994	
O		1.53572911		7.49535594		0.05859618		-0.00005742		-0.00001205		 0.00002994	
O		1.53572911		10.55414354		0.05859618		-0.00005742		 0.00001205		 0.00002994	
O		4.15637074		1.47885592		8.19440386		 0.00005742		-0.00001205		-0.00002994	
O		4.15637074		7.49535594		0.05859618		 0.00005742		-0.00001205		 0.00002994	
O		1.53572911		4.53764409		8.19440386		-0.00005742		 0.00001205		-0.00002994	
O		2.84604992		5.89015304		6.23596689		0.00000000		 0.00033279		-0.00014750	
O		2.84604992		6.14284698		2.01703315		0.00000000		-0.00033279		 0.00014750	
O		2.84604992		0.12634697		6.23596689		-0.00000000		-0.00033279		-0.00014750	
O		2.84604992		11.90665249		2.01703315		0.00000000		 0.00033279		 0.00014750	
O		0.00000000		3.00824972		5.91574985		0.00000000		0.00000000		-0.00036577	
O		0.00000000		9.02474974		2.33725019		0.00000000		0.00000000		 0.00036577	
O		0.00000000		3.00824972		1.80493071		0.00000000		0.00000000		 0.00025876	
O		0.00000000		9.02474974		6.44806876		0.00000000		0.00000000		-0.00025876	
O		2.84604992		9.02474974		5.93143101		0.00000000		0.00000000		 0.00046571	
O		2.84604992		3.00824972		2.32156903		0.00000000		0.00000000		-0.00046571	
O		2.84604992		9.02474974		1.78925011		0.00000000		0.00000000		 0.00034121	
O		2.84604992		3.00824972		6.46374993		0.00000000		0.00000000		-0.00034121	
O		0.00000000		11.90665249		2.10946716		0.00000000		 0.00033325		-0.00013441	
O		0.00000000		0.12634697		6.14353402		-0.00000000		-0.00033325		 0.00013441	
O		0.00000000		6.14284698		2.10946716		0.00000000		-0.00033325		-0.00013441	
O		0.00000000		5.89015304		6.14353402		0.00000000		 0.00033325		 0.00013441	
O		4.38177903		7.49535594		4.06790412		-0.00058188		 0.00004104		-0.00015157	
O		1.31032081		4.53764409		4.18509592		 0.00058188		-0.00004104		 0.00015157	
O		1.31032081		10.55414354		4.06790412		 0.00058188		-0.00004104		-0.00015157	
O		4.38177903		1.47885592		4.18509592		-0.00058188		 0.00004104		 0.00015157	
O		4.38177903		4.53764409		4.18509592		-0.00058188		-0.00004104		 0.00015157	
O		1.31032081		7.49535594		4.06790412		 0.00058188		 0.00004104		-0.00015157	
O		1.31032081		1.47885592		4.18509592		 0.00058188		 0.00004104		 0.00015157	
O		4.38177903		10.55414354		4.06790412		-0.00058188		-0.00004104		-0.00015157	
H		2.84604992		9.02474974		4.88165013		0.00000000		0.00000000		 0.00000155	
H		2.84604992		3.00824972		3.37135105		0.00000000		0.00000000		-0.00000155	
H		0.00000000		3.00824972		2.85471273		0.00000000		0.00000000		 0.00046980	
H		0.00000000		9.02474974		5.39828674		0.00000000		0.00000000		-0.00046980	
Mg		2.84604992		6.01650001		4.12649974		0.00000000		-0.00000000		0.00000000	
Mg		2.84604992		0.00000000		4.12649974		0.00000000		0.00000000		0.00000000	
Mg		0.00000000		0.00000000		0.00000000		0.00000000		0.00000000		0.00000000	
Mg		0.00000000		6.01650001		0.00000000		0.00000000		0.00000000		0.00000000	
Mg		1.42302496		1.52097120		2.06325015		-0.00054314		 0.00017615		 0.00030083	
Mg		4.26907488		10.51202883		6.18974989		 0.00054314		-0.00017615		-0.00030083	
Mg		4.26907488		4.49552881		2.06325015		 0.00054314		-0.00017615		 0.00030083	
Mg		1.42302496		7.53747064		6.18974989		-0.00054314		 0.00017615		-0.00030083	
Mg		1.42302496		10.51202883		6.18974989		-0.00054314		-0.00017615		-0.00030083	
Mg		4.26907488		1.52097120		2.06325015		 0.00054314		 0.00017615		 0.00030083	
Mg		4.26907488		7.53747064		6.18974989		 0.00054314		 0.00017615		-0.00030083	
Mg		1.42302496		4.49552881		2.06325015		-0.00054314		-0.00017615		 0.00030083	
Mg		0.00000000		3.00824972		8.00623499		0.00000000		0.00000000		 0.00037010	
Mg		0.00000000		9.02474974		0.24676505		0.00000000		0.00000000		-0.00037010	
Si		2.84604992		7.46166383		0.96230014		0.00000000		-0.00006280		 0.00017688	
Si		2.84604992		4.57133563		7.29070104		0.00000000		 0.00006280		-0.00017688	
Si		2.84604992		10.58783564		0.96230014		0.00000000		 0.00006280		 0.00017688	
Si		2.84604992		1.44516381		7.29070104		0.00000000		-0.00006280		-0.00017688	
Si		0.00000000		1.44516324		5.08879987		0.00000000		-0.00036832		-0.00035576	
Si		0.00000000		10.58783564		3.16420017		0.00000000		 0.00036832		 0.00035576	
Si		0.00000000		4.57133677		5.08879987		0.00000000		 0.00036832		-0.00035576	
Si		0.00000000		7.46166383		3.16420017		0.00000000		-0.00036832		 0.00035576	
