# total energy = -20632.6115093 eV	

CRYSTAL	
PRIMVEC	
		10.10999695		-0.80879773		0.00000000	
		-0.46159637		5.76999514		0.00000000	
		0.00000000		0.00000000		4.70000276	
PRIMCOORD
   28 1	
Si		8.28181996		2.20398978		4.11344007		-0.00006419		 0.00000458		-0.00003143	
Si		1.36657961		2.75720966		0.58655965		 0.00006419		-0.00000458		 0.00003143	
Si		3.26148584		-0.26091879		4.14727985		 0.00011632		-0.00004464		 0.00050623	
Si		6.84851415		-0.54788097		0.55271986		-0.00011632		 0.00004464		-0.00050623	
Mg		4.82420029		2.48059972		0.00000000		0.00000000		0.00000000		0.00000000	
Mg		0.00000000		0.00000000		2.35000036		0.00000000		0.00000000		0.00000000	
Mg		-0.23080021		2.88499960		2.35000036		0.00000000		0.00000000		0.00000000	
Mg		5.05499949		-0.40439988		2.35000036		0.00000000		0.00000000		0.00000000	
Mg		2.39265584		1.25733487		2.34530042		-0.00033003		-0.00059948		-0.00059276	
Mg		7.25574373		3.70386457		2.35470031		 0.00033003		 0.00059948		 0.00059276	
Mg		7.48405097		0.85002314		2.35470031		-0.00041936		 0.00021138		-0.00049868	
Mg		2.16434759		4.11117732		2.34530042		 0.00041936		-0.00021138		 0.00049868	
O		2.95789434		2.62990351		0.98934994		 0.00013991		-0.00081294		 0.00016142	
O		6.69050625		2.33129593		3.71064977		-0.00013991		 0.00081294		-0.00016142	
O		1.42926207		2.75219531		3.64578976		-0.00029078		 0.00013561		 0.00012042	
O		8.21913750		2.20900515		1.05420995		 0.00029078		-0.00013561		-0.00012042	
O		8.39635493		-0.67170831		1.09698003		-0.00034106		-0.00054246		 0.00000722	
O		1.71364507		-0.13709246		3.60301968		 0.00034106		 0.00054246		-0.00000722	
O		3.36663005		-0.26932980		1.08523018		-0.00014530		 0.00041000		 0.00035135	
O		6.74336994		-0.53946996		3.61476954		 0.00014530		-0.00041000		-0.00035135	
O		0.74029866		1.43194775		1.07489010		 0.00031496		-0.00021115		 0.00020762	
O		8.90810091		3.52925169		3.62510961		-0.00031496		 0.00021115		-0.00020762	
O		9.12957629		0.76080639		3.62510961		 0.00001250		 0.00010282		-0.00029178	
O		0.51882328		4.20039406		1.07489010		-0.00001250		-0.00010282		 0.00029178	
O		5.89196137		0.83635740		1.03870035		-0.00045923		 0.00002206		-0.00021241	
O		3.75643921		4.12484305		3.66130038		 0.00045923		-0.00002206		 0.00021241	
O		4.00745709		0.98711661		3.66130038		-0.00062369		 0.00007989		-0.00011572	
O		5.64094248		3.97408283		1.03870035		 0.00062369		-0.00007989		 0.00011572	
