# total energy = -20633.6672515 eV	

CRYSTAL	
PRIMVEC	
		10.11000015		-0.40439960		0.00000000	
		-0.23080363		5.76999957		0.00000000	
		0.00000000		0.00000000		4.70000202	
PRIMCOORD
   28 1	
Si		8.39721991		2.54449488		4.11343946		-0.00007828		 0.00059993		 0.00039388	
Si		1.48197965		2.82110510		0.58655952		 0.00007828		-0.00059993		-0.00039388	
Si		3.26148562		-0.13045853		4.14727939		-0.00014937		 0.00054312		-0.00019390	
Si		6.84851352		-0.27394107		0.55271959		 0.00014937		-0.00054312		 0.00019390	
Mg		4.93960028		2.68279999		0.00000000		0.00000000		0.00000000		0.00000000	
Mg		0.00000000		0.00000000		2.35000000		0.00000000		0.00000000		0.00000000	
Mg		-0.11539979		2.88499979		2.35000000		0.00000000		0.00000000		0.00000000	
Mg		5.05500007		-0.20219980		2.35000000		0.00000000		0.00000000		0.00000000	
Mg		2.45097848		1.35770731		2.34530015		-0.00053495		-0.00043675		-0.00005860	
Mg		7.42822108		4.00789266		2.35469985		 0.00053495		 0.00043675		 0.00005860	
Mg		7.54237432		1.15405051		2.35469985		 0.00015075		 0.00025405		 0.00032006	
Mg		2.33682524		4.21154846		2.34530015		-0.00015075		-0.00025405		-0.00032006	
O		3.07329430		2.75745223		0.98935035		-0.00032683		 0.00034470		 0.00009070	
O		6.80590627		2.60814775		3.71064965		 0.00032683		-0.00034470		-0.00009070	
O		1.54466219		2.81859783		3.64578969		 0.00062705		-0.00022317		-0.00041332	
O		8.33453737		2.54700214		1.05421031		-0.00062705		 0.00022317		 0.00041332	
O		8.39635481		-0.33585363		1.09698046		 0.00061814		 0.00055633		-0.00039526	
O		1.71364533		-0.06854598		3.60301954		-0.00061814		-0.00055633		 0.00039526	
O		3.36662972		-0.13466462		1.08523033		 0.00003932		-0.00047239		-0.00020268	
O		6.74336942		-0.26973498		3.61476967		-0.00003932		 0.00047239		 0.00020268	
O		0.80033037		1.46636340		1.07488965		-0.00057294		-0.00049639		-0.00081895	
O		9.07887020		3.89923658		3.62511035		 0.00057294		 0.00049639		 0.00081895	
O		9.18960758		1.13079105		3.62511035		-0.00043546		 0.00078232		-0.00003134	
O		0.68959198		4.23480892		1.07488965		 0.00043546		-0.00078232		 0.00003134	
O		5.94460635		1.07624648		1.03870029		 0.00014455		-0.00066542		-0.00037904	
O		3.93459321		4.28935248		3.66129970		-0.00014455		 0.00066542		 0.00037904	
O		4.06010198		1.15162722		3.66129970		 0.00012622		 0.00056992		 0.00013091	
O		5.81909758		4.21397275		1.03870029		-0.00012622		-0.00056992		-0.00013091	
