# total energy = -20631.5509817 eV	

CRYSTAL	
PRIMVEC	
		10.11000123		-1.21319770		0.00000000	
		-0.69240195		5.77000270		0.00000000	
		0.00000000		0.00000000		4.70000193	
PRIMCOORD
   28 1	
Si		8.16641971		1.86348572		4.11344026		 0.00018743		 0.00012775		 0.00023838	
Si		1.25117956		2.69331418		0.58655963		-0.00018743		-0.00012775		-0.00023838	
Si		3.26148619		-0.39137781		4.14727987		-0.00019487		 0.00005726		 0.00010935	
Si		6.84851402		-0.82182193		0.55272002		 0.00019487		-0.00005726		-0.00010935	
Mg		4.70879964		2.27839944		0.00000000		0.00000000		0.00000000		0.00000000	
Mg		0.00000000		0.00000000		2.34999995		0.00000000		0.00000000		0.00000000	
Mg		-0.34619996		2.88500033		2.34999995		0.00000000		0.00000000		0.00000000	
Mg		5.05499960		-0.60659987		2.34999995		0.00000000		0.00000000		0.00000000	
Mg		2.33433209		1.15696264		2.34529969		 0.00014501		-0.00014847		 0.00002611	
Mg		7.08326719		3.39983726		2.35470020		-0.00014501		 0.00014847		-0.00002611	
Mg		7.42572812		0.54599548		2.35470020		-0.00010398		 0.00011040		 0.00019323	
Mg		1.99187115		4.01080442		2.34529969		 0.00010398		-0.00011040		-0.00019323	
O		2.84249437		2.50235709		0.98935002		-0.00024425		-0.00027847		-0.00020872	
O		6.57510592		2.05444281		3.71064987		 0.00024425		 0.00027847		 0.00020872	
O		1.31386221		2.68579336		3.64579020		-0.00023239		 0.00007050		 0.00020772	
O		8.10373809		1.87100654		1.05420969		 0.00023239		-0.00007050		-0.00020772	
O		8.39635451		-1.00756250		1.09698040		 0.00026349		 0.00017116		-0.00038151	
O		1.71364468		-0.20563724		3.60301950		-0.00026349		-0.00017116		 0.00038151	
O		3.36662999		-0.40399601		1.08522976		 0.00001582		 0.00040249		-0.00003507	
O		6.74337022		-0.80920373		3.61477014		-0.00001582		-0.00040249		 0.00003507	
O		0.68026845		1.39753411		1.07489042		 0.00009444		-0.00003166		 0.00000845	
O		8.73733185		3.15926579		3.62510948		-0.00009444		 0.00003166		-0.00000845	
O		9.06954508		0.39081981		3.62510948		 0.00012893		-0.00015245		-0.00021613	
O		0.34805420		4.16598009		1.07489042		-0.00012893		 0.00015245		 0.00021613	
O		5.83931621		0.59646723		1.03869966		 0.00023760		-0.00001033		 0.00008973	
O		3.57828409		3.96033267		3.66130023		-0.00023760		 0.00001033		-0.00008973	
O		3.95481068		0.82260700		3.66130023		 0.00039920		 0.00008222		 0.00035854	
O		5.46278860		3.73419290		1.03869966		-0.00039920		-0.00008222		-0.00035854	
