# total energy = -20631.5509817 eV	

CRYSTAL	
PRIMVEC	
		10.11000123		1.21319770		0.00000000	
		0.69240195		5.77000270		0.00000000	
		0.00000000		0.00000000		4.70000193	
PRIMCOORD
   28 1	
Si		8.85881963		3.90651392		4.11344026		 0.00018743		-0.00012775		 0.00023839	
Si		1.94357948		3.07668547		0.58655963		-0.00018743		 0.00012775		-0.00023839	
Si		3.26148619		0.39137781		4.14727987		-0.00019487		-0.00005726		 0.00010935	
Si		6.84851402		0.82182193		0.55272002		 0.00019487		 0.00005726		-0.00010935	
Mg		5.40119955		3.49160020		0.00000000		0.00000000		0.00000000		0.00000000	
Mg		0.00000000		0.00000000		2.34999995		0.00000000		0.00000000		0.00000000	
Mg		0.34619996		2.88500033		2.34999995		0.00000000		0.00000000		0.00000000	
Mg		5.05499960		0.60659987		2.34999995		0.00000000		0.00000000		0.00000000	
Mg		2.68427107		1.75919522		2.34529969		 0.00010398		 0.00011041		-0.00019323	
Mg		8.11812804		5.22400518		2.35470020		-0.00010398		-0.00011041		 0.00019323	
Mg		7.77566711		2.37016340		2.35470020		-0.00014501		-0.00014847		-0.00002611	
Mg		3.02673200		4.61303700		2.34529969		 0.00014501		 0.00014847		 0.00002611	
O		3.53489429		3.26764255		0.98935002		-0.00024425		 0.00027847		-0.00020872	
O		7.26750584		3.71555683		3.71064987		 0.00024425		-0.00027847		 0.00020872	
O		2.00626213		3.08420730		3.64579020		-0.00023239		-0.00007050		 0.00020772	
O		8.79613800		3.89899310		1.05420969		 0.00023239		 0.00007050		-0.00020772	
O		8.39635451		1.00756250		1.09698040		 0.00026349		-0.00017116		-0.00038151	
O		1.71364468		0.20563724		3.60301950		-0.00026349		 0.00017116		 0.00038151	
O		3.36662999		0.40399601		1.08522976		 0.00001583		-0.00040249		-0.00003507	
O		6.74337022		0.80920373		3.61477014		-0.00001583		 0.00040249		 0.00003507	
O		1.04045411		1.60401955		1.07489042		-0.00012893		-0.00015246		 0.00021614	
O		9.76194500		5.37917983		3.62510948		 0.00012893		 0.00015246		-0.00021614	
O		9.42973176		2.61073385		3.62510948		-0.00009444		-0.00003165		-0.00000845	
O		1.37266836		4.37246554		1.07489042		 0.00009444		 0.00003165		 0.00000845	
O		6.15518851		2.03580674		1.03869966		-0.00039920		 0.00008222		-0.00035854	
O		4.64721060		4.94739264		3.66130023		 0.00039920		-0.00008222		 0.00035854	
O		4.27068401		1.80966697		3.66130023		-0.00023760		-0.00001033		-0.00008973	
O		6.53171612		5.17353241		1.03869966		 0.00023760		 0.00001033		 0.00008973	
