# total energy = -20632.6115093 eV	

CRYSTAL	
PRIMVEC	
		10.10999695		0.80879773		0.00000000	
		0.46159637		5.76999514		0.00000000	
		0.00000000		0.00000000		4.70000276	
PRIMCOORD
   28 1	
Si		8.74341937		3.56600941		4.11344007		-0.00006419		-0.00000458		-0.00003143	
Si		1.82818003		3.01278954		0.58655965		 0.00006419		 0.00000458		 0.00003143	
Si		3.26148584		0.26091879		4.14727985		 0.00011632		 0.00004464		 0.00050623	
Si		6.84851415		0.54788097		0.55271986		-0.00011632		-0.00004464		-0.00050623	
Mg		5.28579970		3.28939948		0.00000000		0.00000000		0.00000000		0.00000000	
Mg		0.00000000		0.00000000		2.35000036		0.00000000		0.00000000		0.00000000	
Mg		0.23080021		2.88499960		2.35000036		0.00000000		0.00000000		0.00000000	
Mg		5.05499949		0.40439988		2.35000036		0.00000000		0.00000000		0.00000000	
Mg		2.62594801		1.65882289		2.34530042		 0.00041936		 0.00021138		 0.00049868	
Mg		7.94565038		4.91997708		2.35470031		-0.00041936		-0.00021138		-0.00049868	
Mg		7.71734416		2.06613462		2.35470031		 0.00033003		-0.00059948		 0.00059276	
Mg		2.85425626		4.51266534		2.34530042		-0.00033003		 0.00059948		-0.00059276	
O		3.41949375		3.14009569		0.98934994		 0.00013992		 0.00081294		 0.00016142	
O		7.15210565		3.43870428		3.71064977		-0.00013992		-0.00081294		-0.00016142	
O		1.89086148		3.01780490		3.64578976		-0.00029078		-0.00013561		 0.00012043	
O		8.68073792		3.56099506		1.05420995		 0.00029078		 0.00013561		-0.00012043	
O		8.39635493		0.67170831		1.09698003		-0.00034107		 0.00054246		 0.00000722	
O		1.71364507		0.13709246		3.60301968		 0.00034107		-0.00054246		-0.00000722	
O		3.36663005		0.26932980		1.08523018		-0.00014530		-0.00041000		 0.00035135	
O		6.74336994		0.53946996		3.61476954		 0.00014530		 0.00041000		-0.00035135	
O		0.98042269		1.56960615		1.07489010		-0.00001250		 0.00010282		 0.00029178	
O		9.59117671		5.00919382		3.62510961		 0.00001250		-0.00010282		-0.00029178	
O		9.36970032		2.24074751		3.62510961		-0.00031496		-0.00021115		-0.00020762	
O		1.20189908		4.33805145		1.07489010		 0.00031496		 0.00021115		 0.00020762	
O		6.10254291		1.79591738		1.03870035		 0.00062369		 0.00007989		 0.00011572	
O		4.46905649		4.78288259		3.66130038		-0.00062369		-0.00007989		-0.00011572	
O		4.21803862		1.64515716		3.66130038		 0.00045923		 0.00002206		 0.00021241	
O		6.35356078		4.93364281		1.03870035		-0.00045923		-0.00002206		-0.00021241	
