# total energy = -20631.2920402 eV	

CRYSTAL	
PRIMVEC	
		10.11000334		1.61760504		0.00000000	
		0.92320340		5.76999823		0.00000000	
		0.00000000		0.00000000		4.70000416	
PRIMCOORD
   28 1	
Si		8.97421917		4.24701926		4.11343945		 0.00020578		 0.00017808		 0.00012970	
Si		2.05898041		3.14058094		0.58655959		-0.00020578		-0.00017808		-0.00012970	
Si		3.26148537		0.52183840		4.14728004		 0.00022624		-0.00001818		-0.00003764	
Si		6.84851387		1.09576152		0.55272003		-0.00022624		 0.00001818		 0.00003764	
Mg		5.51659928		3.69379959		0.00000000		0.00000000		0.00000000		0.00000000	
Mg		0.00000000		0.00000000		2.35000003		0.00000000		0.00000000		0.00000000	
Mg		0.46159965		2.88500014		2.35000003		0.00000000		0.00000000		0.00000000	
Mg		5.05499962		0.80880047		2.35000003		0.00000000		0.00000000		0.00000000	
Mg		2.74259466		1.85956646		2.34529950		 0.00022351		-0.00011743		-0.00030890	
Mg		8.29060491		5.52803271		2.35469955		-0.00022351		 0.00011743		 0.00030890	
Mg		7.83398940		2.67419065		2.35469955		-0.00055922		-0.00007322		 0.00007651	
Mg		3.19920915		4.71340853		2.34529950		 0.00055922		 0.00007322		-0.00007651	
O		3.65029377		3.39519112		0.98934981		-0.00006378		-0.00013125		 0.00015043	
O		7.38290580		3.99240908		3.71065026		 0.00006378		 0.00013125		-0.00015043	
O		2.12166208		3.15060963		3.64578982		 0.00000393		-0.00024360		-0.00008971	
O		8.91153750		4.23698954		1.05421025		-0.00000393		 0.00024360		 0.00008971	
O		8.39635418		1.34341663		1.09697992		 0.00004440		-0.00016486		-0.00012056	
O		1.71364506		0.27418329		3.60302015		-0.00004440		 0.00016486		 0.00012056	
O		3.36662955		0.53866142		1.08523011		 0.00019474		-0.00023229		-0.00027091	
O		6.74336970		1.07893850		3.61476996		-0.00019474		 0.00023229		 0.00027091	
O		1.10048458		1.63843443		1.07489016		 0.00003763		 0.00036673		 0.00031176	
O		9.93271397		5.74916475		3.62510991		-0.00003763		-0.00036673		-0.00031176	
O		9.48976288		2.98071867		3.62510991		 0.00009873		-0.00003117		 0.00012537	
O		1.54343669		4.40688051		1.07489016		-0.00009873		 0.00003117		-0.00012537	
O		6.20783412		2.27569654		1.03869981		-0.00060570		 0.00031444		-0.00028665	
O		4.82536546		5.11190263		3.66130025		 0.00060570		-0.00031444		 0.00028665	
O		4.32332849		1.97417724		3.66130025		 0.00038880		 0.00012785		 0.00000038	
O		6.70987006		5.41342296		1.03869981		-0.00038880		-0.00012785		-0.00000038	
