# total energy = -20633.6672515 eV	

CRYSTAL	
PRIMVEC	
		10.11000015		0.40439960		0.00000000	
		0.23080363		5.76999957		0.00000000	
		0.00000000		0.00000000		4.70000202	
PRIMCOORD
   28 1	
Si		8.62801949		3.22550470		4.11343946		-0.00007828		-0.00059993		 0.00039388	
Si		1.71278024		2.94889448		0.58655952		 0.00007828		 0.00059993		-0.00039388	
Si		3.26148562		0.13045853		4.14727939		-0.00014937		-0.00054312		-0.00019390	
Si		6.84851352		0.27394107		0.55271959		 0.00014937		 0.00054312		 0.00019390	
Mg		5.17039986		3.08719959		0.00000000		0.00000000		0.00000000		0.00000000	
Mg		0.00000000		0.00000000		2.35000000		0.00000000		0.00000000		0.00000000	
Mg		0.11539979		2.88499979		2.35000000		0.00000000		0.00000000		0.00000000	
Mg		5.05500007		0.20219980		2.35000000		0.00000000		0.00000000		0.00000000	
Mg		2.56762482		1.55845112		2.34530015		-0.00015075		 0.00025405		-0.00032006	
Mg		7.77317491		4.61594907		2.35469985		 0.00015075		-0.00025405		 0.00032006	
Mg		7.65902065		1.76210691		2.35469985		 0.00053495		-0.00043675		 0.00005860	
Mg		2.68177907		4.41229328		2.34530015		-0.00053495		 0.00043675		-0.00005860	
O		3.30409388		3.01254836		0.98935035		-0.00032683		-0.00034470		 0.00009070	
O		7.03670584		3.16185183		3.71064965		 0.00032683		 0.00034470		-0.00009070	
O		1.77546177		2.95140174		3.64578969		 0.00062705		 0.00022317		-0.00041332	
O		8.56533796		3.22299642		1.05421031		-0.00062705		-0.00022317		 0.00041332	
O		8.39635481		0.33585363		1.09698046		 0.00061814		-0.00055633		-0.00039526	
O		1.71364533		0.06854598		3.60301954		-0.00061814		 0.00055633		 0.00039526	
O		3.36662972		0.13466462		1.08523033		 0.00003932		 0.00047240		-0.00020268	
O		6.74336942		0.26973498		3.61476967		-0.00003932		-0.00047240		 0.00020268	
O		0.92039156		1.53519065		1.07488965		 0.00043547		 0.00078232		 0.00003134	
O		9.42040817		4.63920751		3.62511035		-0.00043547		-0.00078232		-0.00003134	
O		9.30966978		1.87076300		3.62511035		 0.00057294		-0.00049639		 0.00081896	
O		1.03112994		4.30363719		1.07488965		-0.00057294		 0.00049639		-0.00081896	
O		6.04989817		1.55602683		1.03870029		-0.00012622		 0.00056991		-0.00013091	
O		4.29090156		4.61837336		3.66129970		 0.00012622		-0.00056991		 0.00013091	
O		4.16539279		1.48064710		3.66129970		-0.00014455		-0.00066542		 0.00037904	
O		6.17540694		4.69375309		1.03870029		 0.00014455		 0.00066542		-0.00037904	
