# total energy = -38098.3935781 eV

CRYSTAL
PRIMVEC
		5.73881491		0.00000000		0.00000000
		0.00000000		11.41732771		0.00000000
		0.00000000		0.00000000		8.15820779
PRIMECORD
   58 1
O		1.48836514		1.42971773		8.16445316		-0.00028570		 0.00000486		-0.00009397
O		4.25045204		9.98760998		-0.00624253		 0.00028574		-0.00000484		 0.00009395
O		4.25045204		4.27894612		8.16445316		 0.00028571		-0.00000486		-0.00009395
O		1.48836514		7.13838159		-0.00624253		-0.00028572		 0.00000486		 0.00009397
O		1.48836514		9.98760998		-0.00624253		-0.00028573		-0.00000484		 0.00009396
O		4.25045204		1.42971773		8.16445316		 0.00028573		 0.00000485		-0.00009395
O		4.25045204		7.13838159		-0.00624253		 0.00028573		 0.00000486		 0.00009396
O		1.48836571		4.27894612		8.16445316		-0.00028572		-0.00000485		-0.00009396
O		2.86940916		5.57020409		6.19949419		 0.00000001		-0.00004160		 0.00011292
O		2.86940916		5.84712361		1.95871645		-0.00000000		 0.00004165		-0.00011289
O		2.86940859		0.13845976		6.19949419		0.00000000		 0.00004160		 0.00011285
O		2.86940859		11.27886852		1.95871645		0.00000000		-0.00004164		-0.00011283
O		0.00000000		2.85433193		5.80995477		 0.00000002		-0.00000003		 0.00002067
O		0.00000000		8.56299578		2.34825587		 0.00000002		 0.00000003		-0.00002058
O		0.00000000		2.85433193		1.94820428		-0.00000000		 0.00000001		-0.00009429
O		0.00000000		8.56299578		6.21000636		-0.00000001		-0.00000002		 0.00009429
O		2.86940916		8.56299578		5.85074094		-0.00000001		-0.00000000		 0.00007577
O		2.86940859		2.85433193		2.30746970		-0.00000000		-0.00000001		-0.00007565
O		2.86940859		8.56299578		1.72535971		-0.00000001		 0.00000006		-0.00018739
O		2.86940859		2.85433193		6.43285093		0.00000000		-0.00000010		 0.00018737
O		0.00000000		11.25537438		2.02794946		-0.00000002		 0.00025374		 0.00056839
O		0.00000000		0.16195390		6.13026118		0.00000000		-0.00025372		-0.00056844
O		0.00000000		5.87061776		2.02794946		-0.00000000		-0.00025377		 0.00056830
O		0.00000000		5.54670995		6.13026118		-0.00000001		 0.00025372		-0.00056837
O		4.40821826		7.06735044		4.11333562		-0.00030421		-0.00024143		-0.00018373
O		1.33059949		4.34997784		4.04487502		 0.00030426		 0.00024144		 0.00018373
O		1.33059949		10.05864169		4.11333562		 0.00030418		 0.00024150		-0.00018373
O		4.40821826		1.35868659		4.04487502		-0.00030422		-0.00024149		 0.00018371
O		4.40821826		4.34997784		4.04487502		-0.00030427		 0.00024143		 0.00018371
O		1.33059949		7.06735044		4.11333562		 0.00030421		-0.00024144		-0.00018373
O		1.33059949		1.35868659		4.04487502		 0.00030424		-0.00024149		 0.00018368
O		4.40821826		10.05864169		4.11333562		-0.00030421		 0.00024149		-0.00018369
H		2.86940859		8.56299578		4.86573160		0.00000000		-0.00000000		 0.00026590
H		2.86940859		2.85433193		3.29247960		0.00000000		 0.00000001		-0.00026605
H		0.00000000		2.85433193		2.93046376		-0.00000001		 0.00000001		 0.00019759
H		0.00000000		8.56299578		5.22774688		-0.00000000		-0.00000000		-0.00019757
Mg		2.86940916		5.70866385		4.07910503		-0.00000001		-0.00000002		 0.00000003
Mg		2.86940859		0.00000000		4.07910503		-0.00000001		 0.00000001		 0.00000002
Mg		0.00000000		0.00000000		0.00000000		 0.00000001		-0.00000001		 0.00000002
Mg		0.00000000		5.70866385		0.00000000		 0.00000001		-0.00000000		 0.00000002
Mg		1.45931722		1.31680355		2.05289793		-0.00043568		-0.00024268		 0.00004784
Mg		4.27950053		10.10052473		6.10531271		 0.00043568		 0.00024265		-0.00004787
Mg		4.27950053		4.39186088		2.05289793		 0.00043568		 0.00024269		 0.00004783
Mg		1.45931722		7.02546740		6.10531271		-0.00043568		-0.00024267		-0.00004785
Mg		1.45931722		10.10052473		6.10531271		-0.00043567		 0.00024266		-0.00004787
Mg		4.27950053		1.31680355		2.05289793		 0.00043569		-0.00024268		 0.00004784
Mg		4.27950053		7.02546740		6.10531271		 0.00043567		-0.00024268		-0.00004787
Mg		1.45931722		4.39186088		2.05289793		-0.00043568		 0.00024269		 0.00004782
Mg		0.00000000		2.85433193		7.80228762		0.00000000		 0.00000003		 0.00035427
Mg		0.00000000		8.56299578		0.35592302		 0.00000001		-0.00000002		-0.00035427
Si		2.86940859		7.12779656		0.92766086		-0.00000001		-0.00005322		 0.00024165
Si		2.86940859		4.28953172		7.23054977		-0.00000000		 0.00005327		-0.00024161
Si		2.86940859		9.99819557		0.92766086		-0.00000000		 0.00005315		 0.00024165
Si		2.86940859		1.41913270		7.23054977		-0.00000001		-0.00005316		-0.00024161
Si		0.00000000		1.36393584		4.97045429		-0.00000001		 0.00012580		-0.00015928
Si		0.00000000		10.05339244		3.18775635		 0.00000002		-0.00012582		 0.00015928
Si		0.00000000		4.34472858		4.97045429		-0.00000001		-0.00012577		-0.00015933
Si		0.00000000		7.07259970		3.18775635		 0.00000001		 0.00012580		 0.00015936
