# total energy = -38097.7868112 eV

CRYSTAL
PRIMVEC
		5.91903817		0.00000000		0.00000000
		0.00000000		11.74953573		0.00000000
		0.00000000		0.00000000		8.46563811
PRIMECORD
   58 1
O		1.54057138		1.45637896		8.48013645		 0.00003396		 0.00019613		-0.00012461
O		4.37846850		10.29315563		-0.01449607		-0.00003401		-0.00019611		 0.00012467
O		4.37846850		4.41838834		8.48013645		-0.00003396		-0.00019609		-0.00012463
O		1.54057138		7.33114625		-0.01449550		 0.00003401		 0.00019607		 0.00012466
O		1.54057138		10.29315563		-0.01449550		 0.00003399		-0.00019612		 0.00012465
O		4.37846850		1.45637896		8.48013645		-0.00003393		 0.00019613		-0.00012461
O		4.37846850		7.33114625		-0.01449550		-0.00003400		 0.00019607		 0.00012465
O		1.54057138		4.41838834		8.48013645		 0.00003395		-0.00019609		-0.00012461
O		2.95951966		5.69885978		6.47945899		-0.00000001		 0.00034793		-0.00012718
O		2.95951966		6.05067481		1.98618197		 0.00000001		-0.00034796		 0.00012720
O		2.95951966		0.17590752		6.47945899		0.00000000		-0.00034792		-0.00012717
O		2.95951966		11.57362708		1.98618197		-0.00000000		 0.00034794		 0.00012717
O		0.00000000		2.93738365		5.94286359		0.00000000		 0.00000001		 0.00022581
O		0.00000000		8.81215094		2.52277736		 0.00000001		-0.00000002		-0.00022581
O		0.00000000		2.93738365		2.02135800		0.00000000		0.00000000		 0.00047745
O		0.00000000		8.81215094		6.44428352		0.00000000		-0.00000002		-0.00047979
O		2.95951966		8.81215094		6.06974050		-0.00000002		-0.00000001		 0.00054169
O		2.95951966		2.93738365		2.39590045		-0.00000001		 0.00000002		-0.00054311
O		2.95951966		8.81215094		1.65283552		-0.00000000		-0.00000022		 0.00001260
O		2.95951966		2.93738365		6.81280543		-0.00000000		 0.00000024		-0.00001252
O		0.00000000		11.53674853		2.12827442		 0.00000002		 0.00020498		-0.00002239
O		0.00000000		0.21278606		6.33736653		-0.00000001		-0.00020500		 0.00002241
O		0.00000000		6.08755336		2.12827442		-0.00000001		-0.00020501		-0.00002238
O		0.00000000		5.66198124		6.33736653		 0.00000001		 0.00020503		 0.00002241
O		4.57622230		7.23812482		4.28939283		-0.00013988		-0.00025977		 0.00016725
O		1.34281758		4.51140977		4.17624812		 0.00013986		 0.00025984		-0.00016720
O		1.34281758		10.38617707		4.28939283		 0.00013990		 0.00025975		 0.00016727
O		4.57622173		1.36335752		4.17624812		-0.00013981		-0.00025980		-0.00016719
O		4.57622230		4.51140977		4.17624812		-0.00013986		 0.00025984		-0.00016718
O		1.34281758		7.23812482		4.28939283		 0.00013993		-0.00025979		 0.00016730
O		1.34281758		1.36335752		4.17624812		 0.00013986		-0.00025981		-0.00016722
O		4.57622173		10.38617707		4.28939283		-0.00013984		 0.00025975		 0.00016724
H		2.95951966		8.81215094		5.08664371		 0.00000001		 0.00000001		 0.00043787
H		2.95951966		2.93738365		3.37899668		 0.00000001		-0.00000001		-0.00043655
H		0.00000000		2.93738365		3.00236978		-0.00000000		-0.00000001		 0.00042820
H		0.00000000		8.81215094		5.46327003		-0.00000000		 0.00000001		-0.00042603
Mg		2.95951966		5.87476730		4.23282019		-0.00000000		-0.00000005		-0.00000000
Mg		2.95951966		0.00000000		4.23282019		0.00000000		 0.00000006		-0.00000001
Mg		0.00000000		0.00000000		0.00000000		0.00000000		-0.00000000		 0.00000001
Mg		0.00000000		5.87476730		0.00000000		-0.00000000		0.00000000		 0.00000002
Mg		1.49746909		1.32569973		2.13096166		 0.00044124		-0.00021934		 0.00023922
Mg		4.42157079		10.42383486		6.33467872		-0.00044121		 0.00021932		-0.00023917
Mg		4.42157079		4.54906757		2.13096166		-0.00044124		 0.00021931		 0.00023923
Mg		1.49746909		7.20046703		6.33467872		 0.00044120		-0.00021927		-0.00023920
Mg		1.49746909		10.42383486		6.33467872		 0.00044121		 0.00021931		-0.00023916
Mg		4.42157079		1.32569973		2.13096166		-0.00044123		-0.00021935		 0.00023919
Mg		4.42157079		7.20046703		6.33467872		-0.00044121		-0.00021927		-0.00023918
Mg		1.49746909		4.54906757		2.13096166		 0.00044123		 0.00021930		 0.00023921
Mg		0.00000000		2.93738365		8.01005723		-0.00000000		-0.00000002		-0.00101389
Mg		0.00000000		8.81215094		0.45558372		-0.00000000		 0.00000003		 0.00101380
Si		2.95951966		7.32945229		0.91012578		 0.00000001		 0.00003337		 0.00063287
Si		2.95951966		4.42008231		7.55551517		-0.00000001		-0.00003339		-0.00063293
Si		2.95951966		10.29484960		0.91012578		 0.00000001		-0.00003306		 0.00063280
Si		2.95951966		1.45468499		7.55551517		-0.00000000		 0.00003307		-0.00063287
Si		0.00000000		1.39845501		5.11916836		-0.00000002		 0.00000210		 0.00038033
Si		0.00000000		10.35107958		3.34647259		-0.00000006		-0.00000206		-0.00038046
Si		0.00000000		4.47631228		5.11916836		-0.00000003		-0.00000215		 0.00038034
Si		0.00000000		7.27322231		3.34647259		-0.00000007		 0.00000212		-0.00038046
