# total energy = -38098.0785388 eV

CRYSTAL
PRIMVEC
		5.70981366		0.00000000		0.00000000
		0.00000000		11.36494331		0.00000000
		0.00000000		0.00000000		8.11301252
PRIMECORD
   58 1
O		1.47974731		1.42489937		8.11766069		-0.00025234		 0.00003327		-0.00000141
O		4.23006692		9.94004167		-0.00464988		 0.00025236		-0.00003326		 0.00000137
O		4.23006692		4.25757115		8.11766069		 0.00025234		-0.00003325		-0.00000139
O		1.47974787		7.10737046		-0.00464988		-0.00025236		 0.00003326		 0.00000138
O		1.47974731		9.94004167		-0.00464988		-0.00025235		-0.00003327		 0.00000140
O		4.23006692		1.42489937		8.11766069		 0.00025234		 0.00003326		-0.00000140
O		4.23006692		7.10737046		-0.00464988		 0.00025236		 0.00003326		 0.00000136
O		1.47974787		4.25757115		8.11766069		-0.00025234		-0.00003323		-0.00000140
O		2.85490740		5.54966358		6.15963413		 0.00000001		-0.00009206		 0.00011992
O		2.85490740		5.81527802		1.95337669		-0.00000001		 0.00009211		-0.00011997
O		2.85490683		0.13280750		6.15963413		 0.00000001		 0.00009204		 0.00011988
O		2.85490683		11.23213410		1.95337669		-0.00000001		-0.00009211		-0.00011991
O		0.00000000		2.84123554		5.78927594		 0.00000001		 0.00000001		 0.00014211
O		0.00000000		8.52370606		2.32373487		 0.00000001		 0.00000002		-0.00014211
O		0.00000000		2.84123554		1.93831084		 0.00000001		-0.00000001		-0.00009884
O		0.00000000		8.52370606		6.17469998		 0.00000001		 0.00000001		 0.00009856
O		2.85490740		8.52370606		5.81954767		-0.00000003		 0.00000001		-0.00001390
O		2.85490740		2.84123554		2.29346258		-0.00000002		 0.00000001		 0.00001380
O		2.85490740		8.52370606		1.73595896		-0.00000001		 0.00000001		-0.00030874
O		2.85490740		2.84123554		6.37705242		-0.00000000		-0.00000004		 0.00030873
O		0.00000000		11.21059576		2.01492935		 0.00000001		 0.00018456		 0.00058471
O		0.00000000		0.15434527		6.09808147		 0.00000001		-0.00018465		-0.00058466
O		0.00000000		5.83681636		2.01492935		 0.00000001		-0.00018459		 0.00058465
O		0.00000000		5.52812525		6.09808147		-0.00000001		 0.00018466		-0.00058460
O		4.38103223		7.04042681		4.08759252		-0.00027360		-0.00022475		-0.00016363
O		1.32878200		4.32451423		4.02541829		 0.00027358		 0.00022475		 0.00016369
O		1.32878200		10.00698532		4.08759252		 0.00027361		 0.00022476		-0.00016363
O		4.38103223		1.35795629		4.02541829		-0.00027362		-0.00022477		 0.00016362
O		4.38103223		4.32451423		4.02541829		-0.00027359		 0.00022475		 0.00016366
O		1.32878200		7.04042681		4.08759252		 0.00027357		-0.00022475		-0.00016366
O		1.32878200		1.35795629		4.02541829		 0.00027361		-0.00022477		 0.00016365
O		4.38103223		10.00698532		4.08759252		-0.00027361		 0.00022476		-0.00016362
H		2.85490683		8.52370606		4.83423209		 0.00000001		-0.00000001		 0.00024792
H		2.85490683		2.84123554		3.27877872		 0.00000001		0.00000000		-0.00024783
H		0.00000000		2.84123554		2.92074336		-0.00000000		-0.00000000		 0.00016503
H		0.00000000		8.52370606		5.19226745		0.00000000		0.00000000		-0.00016488
Mg		2.85490740		5.68247052		4.05650569		0.00000000		-0.00000002		-0.00000002
Mg		2.85490683		0.00000000		4.05650512		-0.00000000		 0.00000002		-0.00000001
Mg		0.00000000		0.00000000		0.00000000		 0.00000001		-0.00000000		 0.00000003
Mg		0.00000000		5.68247052		0.00000000		0.00000000		-0.00000001		 0.00000003
Mg		1.45249125		1.31463258		2.04127068		-0.00033112		-0.00019691		 0.00006267
Mg		4.25732297		10.05030846		6.07174013		 0.00033115		 0.00019686		-0.00006264
Mg		4.25732297		4.36783794		2.04127068		 0.00033109		 0.00019695		 0.00006268
Mg		1.45249125		6.99710367		6.07174013		-0.00033111		-0.00019689		-0.00006265
Mg		1.45249125		10.05030846		6.07174013		-0.00033114		 0.00019685		-0.00006265
Mg		4.25732297		1.31463258		2.04127068		 0.00033113		-0.00019692		 0.00006267
Mg		4.25732297		6.99710367		6.07174013		 0.00033110		-0.00019689		-0.00006266
Mg		1.45249125		4.36783794		2.04127068		-0.00033110		 0.00019695		 0.00006266
Mg		0.00000000		2.84123554		7.77042325		-0.00000000		 0.00000002		 0.00044751
Mg		0.00000000		8.52370606		0.34258757		0.00000000		-0.00000002		-0.00044746
Si		2.85490740		7.09606253		0.93009594		-0.00000000		-0.00002953		 0.00018191
Si		2.85490740		4.26887907		7.18291487		-0.00000002		 0.00002937		-0.00018180
Si		2.85490683		9.95134959		0.93009594		-0.00000000		 0.00002949		 0.00018188
Si		2.85490683		1.41359144		7.18291487		-0.00000000		-0.00002933		-0.00018179
Si		0.00000000		1.35843386		4.94759538		 0.00000001		 0.00020053		-0.00010012
Si		0.00000000		10.00650718		3.16541543		0.00000000		-0.00020047		 0.00010000
Si		0.00000000		4.32403666		4.94759538		 0.00000001		-0.00020054		-0.00010016
Si		0.00000000		7.04090495		3.16541543		0.00000000		 0.00020048		 0.00010001
