# total energy = -38098.5892292 eV

CRYSTAL
PRIMVEC
		5.83682148		0.00000000		0.00000000
		0.00000000		11.59969690		0.00000000
		0.00000000		0.00000000		8.32440003
PRIMECORD
   58 1
O		1.51637938		1.44504030		8.33500612		-0.00002352		 0.00008433		-0.00006800
O		4.32044210		10.15465717		-0.01060324		 0.00002352		-0.00008431		 0.00006796
O		4.32044210		4.35480872		8.33500612		 0.00002354		-0.00008435		-0.00006798
O		1.51637938		7.24488931		-0.01060267		-0.00002353		 0.00008432		 0.00006795
O		1.51637938		10.15465717		-0.01060267		-0.00002353		-0.00008430		 0.00006795
O		4.32044210		1.44504030		8.33500612		 0.00002352		 0.00008432		-0.00006801
O		4.32044210		7.24488931		-0.01060267		 0.00002352		 0.00008431		 0.00006795
O		1.51637938		4.35480872		8.33500612		-0.00002353		-0.00008431		-0.00006799
O		2.91841074		5.64130298		6.34909111		 0.00000001		 0.00017852		-0.00005396
O		2.91841074		5.95839506		1.97531233		 0.00000001		-0.00017845		 0.00005390
O		2.91841074		0.15854604		6.34909111		 0.00000001		-0.00017852		-0.00005399
O		2.91841074		11.44115142		1.97531233		0.00000000		 0.00017846		 0.00005394
O		0.00000000		2.89992451		5.88282560		-0.00000000		 0.00000005		 0.00004379
O		0.00000000		8.69977353		2.44157785		-0.00000000		-0.00000004		-0.00004376
O		0.00000000		2.89992451		1.98740691		-0.00000000		-0.00000000		 0.00025656
O		0.00000000		8.69977296		6.33699597		-0.00000001		 0.00000001		-0.00025646
O		2.91841074		8.69977353		5.96857993		 0.00000001		-0.00000003		 0.00038472
O		2.91841074		2.89992451		2.35582295		0.00000000		 0.00000002		-0.00038572
O		2.91841074		8.69977353		1.68650828		0.00000000		-0.00000002		 0.00014384
O		2.91841074		2.89992451		6.63789460		-0.00000000		-0.00000001		-0.00014381
O		0.00000000		11.41092865		2.08056723		0.00000000		 0.00005679		 0.00000480
O		0.00000000		0.18876881		6.24383565		 0.00000001		-0.00005685		-0.00000474
O		0.00000000		5.98861783		2.08056723		0.00000000		-0.00005678		 0.00000479
O		0.00000000		5.61107963		6.24383565		-0.00000000		 0.00005683		-0.00000473
O		4.49932772		7.16070999		4.20786944		-0.00005609		-0.00009758		 0.00012872
O		1.33749376		4.43898748		4.11653344		 0.00005601		 0.00009760		-0.00012865
O		1.33749376		10.23883650		4.20786944		 0.00005608		 0.00009756		 0.00012876
O		4.49932715		1.36086154		4.11653344		-0.00005600		-0.00009759		-0.00012868
O		4.49932772		4.43898748		4.11653344		-0.00005602		 0.00009761		-0.00012864
O		1.33749376		7.16070999		4.20786944		 0.00005609		-0.00009756		 0.00012872
O		1.33749376		1.36086154		4.11653344		 0.00005601		-0.00009760		-0.00012868
O		4.49932772		10.23883650		4.20786944		-0.00005607		 0.00009755		 0.00012875
H		2.91841074		8.69977296		4.98467714		 0.00000001		 0.00000001		 0.00029422
H		2.91841074		2.89992451		3.33972517		 0.00000001		-0.00000000		-0.00029319
H		0.00000000		2.89992451		2.96908637		0.00000000		0.00000000		 0.00018869
H		0.00000000		8.69977296		5.35531651		0.00000000		0.00000000		-0.00018880
Mg		2.91841074		5.79984845		4.16220172		-0.00000000		-0.00000001		-0.00000001
Mg		2.91841074		0.00000000		4.16220172		0.00000000		 0.00000002		-0.00000001
Mg		0.00000000		0.00000000		0.00000000		0.00000000		 0.00000004		 0.00000003
Mg		0.00000000		5.79984902		0.00000000		-0.00000000		-0.00000004		 0.00000003
Mg		1.47998467		1.32220649		2.09532058		 0.00028487		-0.00005628		 0.00010901
Mg		4.35683682		10.27749155		6.22908230		-0.00028488		 0.00005632		-0.00010899
Mg		4.35683682		4.47764253		2.09532058		-0.00028487		 0.00005628		 0.00010901
Mg		1.47998467		7.12205494		6.22908230		 0.00028487		-0.00005631		-0.00010900
Mg		1.47998467		10.27749155		6.22908230		 0.00028487		 0.00005632		-0.00010899
Mg		4.35683682		1.32220649		2.09532058		-0.00028487		-0.00005629		 0.00010900
Mg		4.35683682		7.12205494		6.22908230		-0.00028487		-0.00005631		-0.00010899
Mg		1.47998467		4.47764253		2.09532058		 0.00028486		 0.00005628		 0.00010900
Mg		0.00000000		2.89992451		7.91498721		-0.00000001		 0.00000001		 0.00021216
Mg		0.00000000		8.69977353		0.40941567		-0.00000002		-0.00000001		-0.00021219
Si		2.91841074		7.23824720		0.91880054		-0.00000000		-0.00000665		 0.00026377
Si		2.91841074		4.36145026		7.40560234		-0.00000000		 0.00000652		-0.00026372
Si		2.91841074		10.16129928		0.91880054		0.00000000		 0.00000660		 0.00026376
Si		2.91841074		1.43839818		7.40560234		-0.00000000		-0.00000647		-0.00026371
Si		0.00000000		1.38275791		5.05187522		0.00000000		 0.00000363		 0.00013002
Si		0.00000000		10.21694013		3.27252766		-0.00000001		-0.00000355		-0.00013018
Si		0.00000000		4.41709111		5.05187522		 0.00000001		-0.00000364		 0.00013003
Si		0.00000000		7.18260692		3.27252766		-0.00000001		 0.00000355		-0.00013020
