# total energy = -35729.33967 eV

CRYSTAL
PRIMVEC
		7.07426994		0.00000000		0.00000000
		-3.53713497		6.80722333		0.00000000
		0.00000000		0.00000000		9.57300113
PRIMECORD
   46 1
Mg		1.02470800		3.09524282		3.69230625		-0.00016839		 0.00010753		-0.00020745
Mg		0.61227806		6.24562392		3.69230625		-0.00006037		 0.00001437		-0.00020517
Mg		-1.63698606		4.27357213		3.69230625		-0.00047933		 0.00013512		-0.00020820
Mg		2.51242697		3.71197697		8.47880611		 0.00016839		-0.00010753		-0.00020745
Mg		2.92485691		0.56159516		8.47880611		 0.00006037		-0.00001437		-0.00020517
Mg		5.17412104		2.53364695		8.47880611		 0.00047933		-0.00013512		-0.00020820
Mg		0.73077209		1.65959968		1.07887710		-0.00018625		 0.00037410		 0.00010689
Mg		1.87821867		6.68060521		1.07887710		-0.00011319		-0.00004029		-0.00027407
Mg		-2.60899076		5.27423398		1.07887710		 0.00010278		 0.00067694		 0.00000999
Mg		2.80636289		5.14762011		5.86537696		 0.00018625		-0.00037410		 0.00010689
Mg		1.65891630		0.12661387		5.86537696		 0.00011319		 0.00004029		-0.00027407
Mg		6.14612573		1.53298581		5.86537696		-0.00010278		-0.00067694		 0.00000999
Mg		0.00000000		4.53814629		0.98506167		-0.00073655		-0.00015150		 0.00066010
Mg		3.53713497		2.26907279		5.77156223		 0.00073655		 0.00015150		 0.00066010
Si		3.53713497		2.26907279		1.66665909		 0.00021151		 0.00003366		 0.00002548
Si		0.00000000		4.53814629		6.45315895		-0.00021151		-0.00003366		 0.00002548
Si		0.00000000		0.00000000		3.84643125		 0.00010317		-0.00009830		 0.00006898
Si		0.00000000		0.00000000		8.63293181		-0.00010317		 0.00009830		 0.00006898
O		1.31864392		0.18651808		9.34324794		-0.00007052		 0.00037025		 0.00051744
O		6.26957174		1.17560713		9.34324794		-0.00040983		-0.00001400		-0.00037120
O		3.02318926		5.44509529		9.34324794		 0.00027184		-0.00002783		-0.00065950
O		2.21849105		6.62070171		4.55674808		 0.00007052		-0.00037025		 0.00051744
O		-2.73243677		5.63161266		4.55674808		 0.00040983		 0.00001400		-0.00037120
O		0.51394571		1.36212521		4.55674808		-0.00027184		 0.00002783		-0.00065950
O		3.02212812		0.67255297		4.63716131		-0.00034459		 0.00019356		-0.00026322
O		5.03900319		2.57176665		4.63716131		-0.00010269		-0.00042785		 0.00040715
O		2.55027431		3.56289876		4.63716131		-0.00008550		 0.00019561		 0.00015278
O		0.51500685		6.13466612		9.42366117		 0.00034459		-0.00019356		-0.00026322
O		-1.50186822		4.23545172		9.42366117		 0.00010269		 0.00042785		 0.00040715
O		0.98686066		3.24432103		9.42366117		 0.00008550		-0.00019561		 0.00015278
O		2.16791002		2.00608822		2.22093592		 0.00029422		 0.00023268		 0.00063556
O		4.42672371		1.08302899		2.22093592		 0.00015702		 0.00005923		 0.00057554
O		4.01676977		3.71810399		2.22093592		 0.00046795		 0.00017330		-0.00048918
O		1.36922495		4.80113228		7.00743578		-0.00029422		-0.00023268		 0.00063556
O		-0.88958874		5.72419080		7.00743578		-0.00015702		-0.00005923		 0.00057554
O		-0.47963621		3.08911580		7.00743578		-0.00046795		-0.00017330		-0.00048918
O		-0.33921124		2.97271293		2.29560484		 0.00030034		 0.00051826		-0.00069952
O		1.38974033		4.99445722		2.29560484		-0.00007930		-0.00025339		 0.00001433
O		-1.05052909		5.64726873		2.29560484		 0.00068406		-0.00023486		 0.00000879
O		3.87634622		3.83450686		7.08210470		-0.00030034		-0.00051826		-0.00069952
O		2.14739464		1.81276328		7.08210470		 0.00007930		 0.00025339		 0.00001433
O		4.58766406		1.15994965		7.08210470		-0.00068406		 0.00023486		 0.00000879
O		3.53713497		2.26907279		0.00000000		-0.00042519		-0.00042571		 0.00002672
O		0.00000000		4.53814629		4.78649986		 0.00042519		 0.00042571		 0.00002672
O		0.00000000		0.00000000		2.22380808		-0.00004846		-0.00012732		 0.00016774
O		0.00000000		0.00000000		7.01030793		 0.00004846		 0.00012732		 0.00016774
