# total energy = -35722.1484115 eV

CRYSTAL
PRIMVEC
		8.64632999		0.00000000		0.00000000
		-4.32316499		6.80722102		0.00000000
		0.00000000		0.00000000		9.57300041
PRIMECORD
   46 1
Mg		1.25242090		3.09524261		3.69230628		 0.02862477		 0.01511115		-0.00522959
Mg		0.74833986		6.24562373		3.69230628		-0.00552781		 0.02389974		-0.00397836
Mg		-2.00076076		4.27357224		3.69230628		-0.00447258		-0.01251948		-0.01021410
Mg		3.07074410		3.71197668		8.47880562		-0.02862477		-0.01511115		-0.00522959
Mg		3.57482513		0.56159470		8.47880562		 0.00552781		-0.02389974		-0.00397836
Mg		6.32392575		2.53364705		8.47880562		 0.00447258		 0.01251948		-0.01021410
Mg		0.89316589		1.65959992		1.07887695		-0.01064727		-0.00287756		 0.00797049
Mg		2.29560061		6.68060502		1.07887695		 0.01141716		-0.02009590		-0.00490781
Mg		-3.18876736		5.27423363		1.07887695		 0.01352437		 0.01287498		-0.00415372
Mg		3.42999911		5.14762023		5.86537715		 0.01064727		 0.00287756		 0.00797049
Mg		2.02756438		0.12661426		5.86537715		-0.01141716		 0.02009590		-0.00490781
Mg		7.51193236		1.53298566		5.86537715		-0.01352437		-0.01287498		-0.00415372
Mg		0.00000000		4.53814561		0.98506168		-0.01171793		 0.00500529		-0.02759622
Mg		4.32316499		2.26907281		5.77156188		 0.01171793		-0.00500529		-0.02759622
Si		4.32316499		2.26907281		1.66665879		-0.02702699		-0.01647768		 0.04698533
Si		0.00000000		4.53814561		6.45315899		 0.02702699		 0.01647768		 0.04698533
Si		0.00000000		0.00000000		3.84643057		-0.02085748		-0.01635035		 0.01543849
Si		0.00000000		0.00000000		8.63293164		 0.02085748		 0.01635035		 0.01543849
O		1.61167591		0.18651777		9.34324840		-0.07489832		-0.00222996		-0.02015042
O		7.66280995		1.17560690		9.34324840		 0.02255376		-0.01515604		-0.00504813
O		3.69500912		5.44509462		9.34324840		 0.02182052		 0.00163736		 0.00279520
O		2.71148908		6.62070238		4.55674819		 0.07489832		 0.00222996		-0.02015042
O		-3.33964496		5.63161325		4.55674819		-0.02255376		 0.01515604		-0.00504813
O		0.62815587		1.36212467		4.55674819		-0.02182052		-0.00163736		 0.00279520
O		3.69371217		0.67255305		4.63716079		-0.00584065		-0.01921551		 0.02041341
O		6.15878085		2.57176699		4.63716079		 0.00196390		-0.00281036		 0.03327261
O		3.11700196		3.56289925		4.63716079		-0.02609853		-0.00790127		 0.01700410
O		0.62945282		6.13466624		9.42366099		 0.00584065		 0.01921551		 0.02041341
O		-1.83561586		4.23545230		9.42366099		-0.00196390		 0.00281036		 0.03327261
O		1.20616303		3.24432090		9.42366099		 0.02609853		 0.00790127		 0.01700410
O		2.64966783		2.00608776		2.22093609		 0.05536739		 0.01480285		-0.03150331
O		5.41044099		1.08302892		2.22093609		-0.03738724		 0.00644092		-0.01899862
O		4.90938617		3.71810433		2.22093609		 0.00496827		-0.01234367		-0.00993835
O		1.67349803		4.80113239		7.00743630		-0.05536739		-0.01480285		-0.03150331
O		-1.08727600		5.72419123		7.00743630		 0.03738724		-0.00644092		-0.01899862
O		-0.58622117		3.08911582		7.00743630		-0.00496827		 0.01234367		-0.00993835
O		-0.41459239		2.97271287		2.29560494		 0.02455717		 0.01795246		 0.00781387
O		1.69857066		4.99445741		2.29560494		-0.02874739		 0.00281724		 0.00290777
O		-1.28398000		5.64726916		2.29560494		-0.00026868		-0.03213225		-0.00063838
O		4.73775565		3.83450728		7.08210514		-0.02455717		-0.01795246		 0.00781387
O		2.62459260		1.81276274		7.08210514		 0.02874739		-0.00281724		 0.00290777
O		5.60714500		1.15995013		7.08210514		 0.00026868		 0.03213225		-0.00063838
O		4.32316499		2.26907281		0.00000000		-0.00861482		-0.00305231		 0.00099702
O		0.00000000		4.53814561		4.78650020		 0.00861482		 0.00305231		 0.00099702
O		0.00000000		0.00000000		2.22380841		 0.00003136		 0.00219568		-0.01324125
O		0.00000000		0.00000000		7.01030774		-0.00003136		-0.00219568		-0.01324125
