# total energy = -35731.0243939 eV

CRYSTAL
PRIMVEC
		7.66379292		0.00000000		0.00000000
		-3.83189646		6.80721845		0.00000000
		0.00000000		0.00000000		9.57299702
PRIMECORD
   46 1
Mg		1.11009964		3.09524272		3.69230584		 0.00026305		 0.00027425		-0.00004721
Mg		0.66330128		6.24562414		3.69230584		-0.00006216		 0.00024765		-0.00045592
Mg		-1.77340168		4.27357158		3.69230584		 0.00018409		 0.00000045		 0.00031346
Mg		2.72179606		3.71197726		8.47880588		-0.00026305		-0.00027425		-0.00004721
Mg		3.16859518		0.56159508		8.47880588		 0.00006216		-0.00024765		-0.00045592
Mg		5.60529814		2.53364688		8.47880588		-0.00018409		-0.00000045		 0.00031346
Mg		0.79166981		1.65959972		1.07887735		 0.00005752		 0.00003327		-0.00065614
Mg		2.03473702		6.68060493		1.07887735		-0.00059250		-0.00040157		 0.00031707
Mg		-2.82640683		5.27423379		1.07887735		-0.00014672		-0.00024539		-0.00032137
Mg		3.04022589		5.14762026		5.86537662		-0.00005752		-0.00003327		-0.00065614
Mg		1.79715867		0.12661429		5.86537662		 0.00059250		 0.00040157		 0.00031707
Mg		6.65830329		1.53298620		5.86537662		 0.00014672		 0.00024539		-0.00032137
Mg		0.00000000		4.53814563		0.98506179		-0.00011050		-0.00017076		-0.00030576
Mg		3.83189570		2.26907282		5.77156183		 0.00011050		 0.00017076		-0.00030576
Si		3.83189570		2.26907282		1.66665884		 0.00017397		-0.00009419		-0.00002817
Si		0.00000000		4.53814563		6.45315888		-0.00017397		 0.00009419		-0.00002817
Si		0.00000000		0.00000000		3.84643085		-0.00012085		 0.00009044		 0.00040862
Si		0.00000000		0.00000000		8.63293165		 0.00012085		-0.00009044		 0.00040862
O		1.42853100		0.18651833		9.34324800		 0.00023731		-0.00019675		 0.00055948
O		6.79203571		1.17560668		9.34324800		-0.00016569		 0.00004397		-0.00022290
O		3.27512191		5.44509498		9.34324800		-0.00039132		-0.00034845		-0.00062089
O		2.40336469		6.62070166		4.55674796		-0.00023731		 0.00019675		 0.00055948
O		-2.96014002		5.63161331		4.55674796		 0.00016569		-0.00004397		-0.00022290
O		0.55677532		1.36212500		4.55674796		 0.00039132		 0.00034845		-0.00062089
O		3.27397234		0.67255301		4.63716107		-0.00004827		-0.00001122		 0.00044224
O		5.45891893		2.57176735		4.63716107		-0.00005778		-0.00013585		 0.00004528
O		2.76279735		3.56289886		4.63716107		 0.00033865		 0.00053854		-0.00035031
O		0.55792412		6.13466621		9.42366111		 0.00004827		 0.00001122		 0.00044224
O		-1.62702324		4.23545187		9.42366111		 0.00005778		 0.00013585		 0.00004528
O		1.06909911		3.24432112		9.42366111		-0.00033865		-0.00053854		-0.00035031
O		2.34856934		2.00608823		2.22093577		 0.00006437		-0.00009862		 0.00005235
O		4.79561766		1.08302882		2.22093577		 0.00013093		-0.00039164		-0.00032784
O		4.35150086		3.71810370		2.22093577		-0.00002450		-0.00006105		 0.00027099
O		1.48332712		4.80113175		7.00743581		-0.00006437		 0.00009862		 0.00005235
O		-0.96372196		5.72419116		7.00743581		-0.00013093		 0.00039164		-0.00032784
O		-0.51960516		3.08911629		7.00743581		 0.00002450		 0.00006105		 0.00027099
O		-0.36747887		2.97271324		2.29560487		 0.00034820		 0.00013779		 0.00047259
O		1.50555212		4.99445706		2.29560487		-0.00018690		 0.00010902		-0.00003067
O		-1.13807325		5.64726891		2.29560487		-0.00027667		-0.00009027		-0.00004551
O		4.19937533		3.83450675		7.08210491		-0.00034820		-0.00013779		 0.00047259
O		2.32634434		1.81276292		7.08210491		 0.00018690		-0.00010902		-0.00003067
O		4.96996971		1.15995031		7.08210491		 0.00027667		 0.00009027		-0.00004551
O		3.83189570		2.26907282		0.00000000		-0.00024883		-0.00017153		 0.00012124
O		0.00000000		4.53814563		4.78650004		 0.00024883		 0.00017153		 0.00012124
O		0.00000000		0.00000000		2.22380816		-0.00010016		-0.00091393		 0.00040935
O		0.00000000		0.00000000		7.01030820		 0.00010016		 0.00091393		 0.00040935
