# total energy = -35728.246601 eV

CRYSTAL
PRIMVEC
		7.27077778		0.00000000		0.00000000
		-3.63538889		6.80722207		0.00000000
		0.00000000		0.00000000		9.57299686
PRIMECORD
   46 1
Mg		1.05317216		3.09524281		3.69230599		 0.00041433		 0.00009586		 0.00063834
Mg		0.62928582		6.24562356		3.69230599		 0.00029921		 0.00024897		-0.00024484
Mg		-1.68245798		4.27357196		3.69230599		 0.00002970		-0.00010609		 0.00043171
Mg		2.58221673		3.71197708		8.47880587		-0.00041433		-0.00009586		 0.00063834
Mg		3.00610307		0.56159488		8.47880587		-0.00029921		-0.00024897		-0.00024484
Mg		5.31784687		2.53364721		8.47880587		-0.00002970		 0.00010609		 0.00043171
Mg		0.75107062		1.65960011		1.07887727		 0.00013623		 0.00054381		-0.00019706
Mg		1.93039223		6.68060511		1.07887727		-0.00083897		 0.00023163		-0.00005123
Mg		-2.68146285		5.27423383		1.07887727		-0.00024369		 0.00021935		 0.00034467
Mg		2.88431682		5.14761978		5.86537715		-0.00013623		-0.00054381		-0.00019706
Mg		1.70499666		0.12661405		5.86537715		 0.00083897		-0.00023163		-0.00005123
Mg		6.31685174		1.53298606		5.86537715		 0.00024369		-0.00021935		 0.00034467
Mg		0.00000000		4.53814611		0.98506170		 0.00028639		-0.00010110		-0.00012706
Mg		3.63538889		2.26907305		5.77156158		-0.00028639		 0.00010110		-0.00012706
Si		3.63538889		2.26907305		1.66665931		-0.00005566		 0.00049548		 0.00029461
Si		0.00000000		4.53814611		6.45315846		 0.00005566		-0.00049548		 0.00029461
Si		0.00000000		0.00000000		3.84643121		-0.00023444		-0.00008229		 0.00007480
Si		0.00000000		0.00000000		8.63293182		 0.00023444		 0.00008229		 0.00007480
O		1.35527298		0.18651799		9.34324755		 0.00059325		 0.00025617		-0.00072530
O		6.44372608		1.17560697		9.34324755		 0.00002078		-0.00011160		-0.00004674
O		3.10716688		5.44509493		9.34324755		 0.00002706		-0.00006377		-0.00008538
O		2.28011591		6.62070190		4.55674767		-0.00059325		-0.00025617		-0.00072530
O		-2.80833792		5.63161292		4.55674767		-0.00002078		 0.00011160		-0.00004674
O		0.52822201		1.36212496		4.55674767		-0.00002706		 0.00006377		-0.00008538
O		3.10607627		0.67255276		4.63716101		-0.00016040		-0.00027319		 0.00011404
O		5.17897501		2.57176717		4.63716101		-0.00076479		 0.00018258		 0.00007406
O		2.62111466		3.56289924		4.63716101		 0.00027592		 0.00034055		 0.00049555
O		0.52931262		6.13466568		9.42366090		 0.00016040		 0.00027319		 0.00011404
O		-1.54358612		4.23545200		9.42366090		 0.00076479		-0.00018258		 0.00007406
O		1.01427277		3.24432066		9.42366090		-0.00027592		-0.00034055		 0.00049555
O		2.22812985		2.00608830		2.22093614		-0.00014701		-0.00008103		-0.00009703
O		4.54968920		1.08302888		2.22093614		-0.00017166		 0.00002853		-0.00056949
O		4.12834690		3.71810417		2.22093614		 0.00072478		 0.00018816		 0.00016792
O		1.40725904		4.80113160		7.00743603		 0.00014701		 0.00008103		-0.00009703
O		-0.91430031		5.72419101		7.00743603		 0.00017166		-0.00002853		-0.00056949
O		-0.49295873		3.08911572		7.00743603		-0.00072478		-0.00018816		 0.00016792
O		-0.34863379		2.97271275		2.29560485		-0.00065549		-0.00075016		-0.00066815
O		1.42834429		4.99445649		2.29560485		 0.00023171		 0.00022642		 0.00005017
O		-1.07970977		5.64726909		2.29560485		-0.00004811		-0.00061878		-0.00001619
O		3.98402196		3.83450714		7.08210473		 0.00065549		 0.00075016		-0.00066815
O		2.20704387		1.81276268		7.08210473		-0.00023171		-0.00022642		 0.00005017
O		4.71510012		1.15995008		7.08210473		 0.00004811		 0.00061878		-0.00001619
O		3.63538889		2.26907305		0.00000000		 0.00009620		 0.00031763		 0.00022403
O		0.00000000		4.53814611		4.78649988		-0.00009620		-0.00031763		 0.00022403
O		0.00000000		0.00000000		2.22380810		 0.00023999		-0.00022061		-0.00008143
O		0.00000000		0.00000000		7.01030798		-0.00023999		 0.00022061		-0.00008143
