# total energy = -12280.0468849 eV	

CRYSTAL	
PRIMVEC	
		3.14299905		0.25143929		0.00000000	
		-1.35374575		2.59619860		0.00000000	
		0.00000000		0.00000000		22.77199715	
PRIMCOORD
   22 1	
O		0.14516887		1.81461195		15.30961471		 0.00084573		 0.00010349		-0.00077685	
O		1.64408412		1.03302594		7.46238496		-0.00084573		-0.00010349		 0.00077685	
O		1.64408412		1.03302594		17.52077555		-0.00069779		 0.00001201		 0.00010338	
O		0.14516887		1.81461195		5.25122286		 0.00069779		-0.00001201		-0.00010338	
O		0.14516887		1.81461195		10.28155782		 0.00067270		 0.00001642		 0.00019248	
O		1.64408412		1.03302594		12.49044185		-0.00067270		-0.00001642		-0.00019248	
O		0.14516887		1.81461195		20.41965163		-0.00001576		 0.00016753		-0.00011479	
O		1.64408412		1.03302594		2.35234710		 0.00001576		-0.00016753		 0.00011479	
O		0.00000000		0.00000000		0.00000000		0.00000000		0.00000000		0.00000000	
H		0.14516887		1.81461195		14.32130962		 0.00009645		-0.00014280		-0.00037061	
H		1.64408412		1.03302594		8.45068879		-0.00009645		 0.00014280		 0.00037061	
H		0.14516887		1.81461195		9.29097592		 0.00001442		-0.00013906		-0.00078243	
H		1.64408412		1.03302594		13.48102375		-0.00001442		 0.00013906		 0.00078243	
H		0.14516887		1.81461195		19.42906973		 0.00051527		 0.00018798		-0.00043065	
H		1.64408412		1.03302594		3.34292900		-0.00051527		-0.00018798		 0.00043065	
H		1.64408412		1.03302594		18.51135745		 0.00031818		 0.00016735		 0.00034319	
H		0.14516887		1.81461195		4.26064096		-0.00031818		-0.00016735		-0.00034319	
Mg		0.00000000		0.00000000		16.41633354		 0.00013251		-0.00004054		-0.00016333	
Mg		0.00000000		0.00000000		6.35566487		-0.00013251		 0.00004054		 0.00016333	
Mg		1.64408412		1.03302594		21.53547959		 0.00027106		-0.00092366		 0.00066206	
Mg		0.14516887		1.81461195		1.23652008		-0.00027106		 0.00092366		-0.00066206	
Mg		0.00000000		0.00000000		11.38599984		0.00000000		0.00000000		0.00000000	
