# total energy = -12277.641067 eV	

CRYSTAL	
PRIMVEC	
		3.14300099		0.50288156		0.00000000	
		-1.13599140		2.47047636		0.00000000	
		0.00000000		0.00000000		22.77199693	
PRIMCOORD
   22 1	
O		0.29033802		1.81461175		15.30961413		 0.00014146		-0.00030012		-0.00034182	
O		1.71666903		1.15874586		7.46238471		-0.00014146		 0.00030012		 0.00034182	
O		1.71666903		1.15874586		17.52077503		 0.00075608		 0.00018497		-0.00011621	
O		0.29033802		1.81461175		5.25122286		-0.00075608		-0.00018497		 0.00011621	
O		0.29033802		1.81461175		10.28155736		-0.00033575		-0.00010951		 0.00005917	
O		1.71666903		1.15874586		12.49044116		 0.00033575		 0.00010951		-0.00005917	
O		0.29033802		1.81461175		20.41965068		-0.00046276		 0.00017694		-0.00063680	
O		1.71666903		1.15874586		2.35234689		 0.00046276		-0.00017694		 0.00063680	
O		0.00000000		0.00000000		0.00000000		0.00000000		0.00000000		0.00000000	
H		0.29033802		1.81461175		14.32130932		 0.00023573		 0.00004395		 0.00032967	
H		1.71666903		1.15874586		8.45068857		-0.00023573		-0.00004395		-0.00032967	
H		0.29033802		1.81461175		9.29097545		-0.00005037		-0.00012147		 0.00056871	
H		1.71666903		1.15874586		13.48102307		 0.00005037		 0.00012147		-0.00056871	
H		0.29033802		1.81461175		19.42906876		 0.00010124		-0.00012871		 0.00026405	
H		1.71666903		1.15874586		3.34292881		-0.00010124		 0.00012871		-0.00026405	
H		1.71666903		1.15874586		18.51135695		 0.00008846		 0.00001731		-0.00041957	
H		0.29033802		1.81461175		4.26064062		-0.00008846		-0.00001731		 0.00041957	
Mg		0.00000000		0.00000000		16.41633297		 0.00016699		 0.00028341		-0.00026149	
Mg		0.00000000		0.00000000		6.35566459		-0.00016699		-0.00028341		 0.00026149	
Mg		1.71666903		1.15874586		21.53547888		-0.00017430		 0.00003851		-0.00053324	
Mg		0.29033802		1.81461175		1.23651996		 0.00017430		-0.00003851		 0.00053324	
Mg		0.00000000		0.00000000		11.38599942		0.00000000		0.00000000		0.00000000	
