# total energy = -12279.0408579 eV	

CRYSTAL	
PRIMVEC	
		3.14300039		0.37715929		0.00000000	
		-1.24487098		2.53333789		0.00000000	
		0.00000000		0.00000000		22.77199742	
PRIMCOORD
   22 1	
O		0.21775302		1.81461180		15.30961452		 0.00060684		 0.00055607		-0.00053209	
O		1.68037702		1.09588602		7.46238480		-0.00060684		-0.00055607		 0.00053209	
O		1.68037702		1.09588602		17.52077522		-0.00030168		-0.00047215		 0.00007424	
O		0.21775302		1.81461180		5.25122283		 0.00030168		 0.00047215		-0.00007424	
O		0.21775302		1.81461180		10.28155748		 0.00004718		 0.00048613		-0.00049211	
O		1.68037702		1.09588602		12.49044152		-0.00004718		-0.00048613		 0.00049211	
O		0.21775302		1.81461180		20.41965136		 0.00042536		-0.00083086		 0.00053207	
O		1.68037702		1.09588602		2.35234702		-0.00042536		 0.00083086		-0.00053207	
O		0.00000000		0.00000000		0.00000000		0.00000000		0.00000000		0.00000000	
H		0.21775302		1.81461180		14.32130936		 0.00026068		-0.00016083		-0.00046258	
H		1.68037702		1.09588602		8.45068870		-0.00026068		 0.00016083		 0.00046258	
H		0.21775302		1.81461180		9.29097566		 0.00026827		-0.00023844		 0.00012681	
H		1.68037702		1.09588602		13.48102335		-0.00026827		 0.00023844		-0.00012681	
H		0.21775302		1.81461180		19.42906921		 0.00038474		-0.00015251		 0.00056184	
H		1.68037702		1.09588602		3.34292884		-0.00038474		 0.00015251		-0.00056184	
H		1.68037702		1.09588602		18.51135737		 0.00044525		 0.00044665		 0.00019838	
H		0.21775302		1.81461180		4.26064069		-0.00044525		-0.00044665		-0.00019838	
Mg		0.00000000		0.00000000		16.41633336		 0.00018620		-0.00001248		-0.00012570	
Mg		0.00000000		0.00000000		6.35566469		-0.00018620		 0.00001248		 0.00012570	
Mg		1.68037702		1.09588602		21.53547906		 0.00088103		-0.00022256		 0.00016254	
Mg		0.21775302		1.81461180		1.23651994		-0.00088103		 0.00022256		-0.00016254	
Mg		0.00000000		0.00000000		11.38599966		0.00000000		0.00000000		0.00000000	
