# total energy = -22467.2909676 eV	

CRYSTAL	
PRIMVEC	
		9.73969720		-0.77917382		0.00000000	
		-0.71339668		8.91740476		0.00000000	
		-1.43537214		0.11482664		5.05028140	
PRIMCOORD
   40 1	
Mg		-1.00665994		8.12641997		1.26257133		 0.00010100		-0.00086356		 0.00059324	
Mg		-1.14210301		0.90581045		3.78771202		-0.00010100		 0.00086356		-0.00059324	
Mg		4.21988602		3.27813166		1.26257133		 0.00007998		-0.00089561		 0.00060187	
Mg		3.37105116		4.97492201		3.78771202		-0.00007998		 0.00089561		-0.00060187	
Ca		-0.57391631		2.71712456		1.26257133		 0.00073521		 0.00002580		 0.00009148	
Ca		-1.57484665		6.31510490		3.78771202		-0.00073521		-0.00002580		-0.00009148	
Ca		3.93923786		6.78623709		1.26257133		 0.00074736		 0.00006360		 0.00008907	
Ca		3.65169932		1.46681658		3.78771202		-0.00074736		-0.00006360		-0.00008907	
Si		2.39170651		0.63435663		1.15833332		-0.00086098		-0.00047845		-0.00016763	
Si		5.19922969		7.61869607		3.89195003		 0.00086098		 0.00047845		 0.00016763	
Si		6.49734529		0.30590572		1.36680934		 0.00046079		-0.00028404		-0.00033696	
Si		1.09359188		7.94714697		3.68347401		-0.00046079		 0.00028404		 0.00033696	
Si		6.90486165		4.70347015		1.15833332		-0.00051826		-0.00024244		 0.00000447	
Si		0.68607552		3.54958353		3.89195003		 0.00051826		 0.00024244		-0.00000447	
Si		1.27079933		5.15419501		1.36680934		 0.00014897		-0.00008786		-0.00045901	
Si		6.32013784		3.09885866		3.68347401		-0.00014897		 0.00008786		 0.00045901	
O		0.85970881		0.70118609		0.71643345		-0.00020671		 0.00031521		 0.00008657	
O		6.73122739		7.55186759		4.33384990		 0.00020671		-0.00031521		-0.00008657	
O		8.03831652		0.12689653		1.80870823		 0.00020073		 0.00031738		 0.00008203	
O		-0.44738129		8.12615714		3.24157513		-0.00020073		-0.00031738		-0.00008203	
O		5.37286395		4.77029765		0.71643345		-0.00041119		 0.00030330		 0.00001628	
O		2.21807420		3.48275602		4.33384990		 0.00041119		-0.00030330		-0.00001628	
O		2.81177153		4.97518485		1.80870823		 0.00039301		 0.00027557		 0.00014791	
O		4.77916564		3.27786883		3.24157513		-0.00039301		-0.00027557		-0.00014791	
O		2.88086000		1.98629674		1.60477759		-0.00000038		 0.00062649		 0.00082818	
O		4.71007717		6.26675694		3.44550478		 0.00000038		-0.00062649		-0.00082818	
O		5.78418702		1.75403073		0.92036409		-0.00047943		-0.00065243		-0.00024856	
O		1.80675015		6.49902294		4.12991927		 0.00047943		 0.00065243		 0.00024856	
O		7.39401417		6.05540928		1.60477759		-0.00013953		 0.00035951		 0.00075838	
O		0.19692301		2.19764538		3.44550478		 0.00013953		-0.00035951		-0.00075838	
O		0.55764106		6.60231905		0.92036409		-0.00037605		-0.00080976		-0.00019978	
O		7.03329612		1.65073463		4.12991927		 0.00037605		 0.00080976		 0.00019978	
O		1.97475154		-0.00345594		5.02720273		 0.00016745		 0.00012827		 0.00059710	
O		5.61618466		8.25650961		0.02307965		-0.00016745		-0.00012827		-0.00059710	
O		5.58700802		-0.29243665		2.54822132		 0.00028347		-0.00015853		 0.00028141	
O		2.00392915		8.54549033		2.50206203		-0.00028347		 0.00015853		-0.00028141	
O		6.48790571		4.06565562		5.02720273		 0.00011869		 0.00012021		 0.00058657	
O		1.10303147		4.18739805		0.02307965		-0.00011869		-0.00012021		-0.00058657	
O		0.36046206		4.55585166		2.54822132		 0.00032739		-0.00016802		 0.00031749	
O		7.23047512		3.69720201		2.50206203		-0.00032739		 0.00016802		-0.00031749	
