# total energy = -22467.2910086 eV	

CRYSTAL	
PRIMVEC	
		9.73969720		0.77917382		0.00000000	
		0.71339668		8.91740476		0.00000000	
		-1.43537214		-0.11482664		5.05028140	
PRIMCOORD
   40 1	
Mg		0.28897387		8.06900470		1.26257133		-0.00006989		-0.00092044		-0.00061376	
Mg		-1.01095324		0.73356462		3.78771202		 0.00006989		 0.00092044		 0.00061376	
Mg		4.80212804		3.99989314		1.26257133		-0.00007287		-0.00091889		-0.00060953	
Mg		4.21559272		5.58185392		3.78771202		 0.00007287		 0.00091889		 0.00060953	
Ca		-0.14376878		2.65971026		1.26257133		-0.00071064		 0.00007488		-0.00003425	
Ca		-0.57820961		6.14286004		3.78771202		 0.00071064		-0.00007488		 0.00003425	
Ca		5.08277718		7.50799857		1.26257133		-0.00071557		 0.00007669		-0.00003960	
Ca		3.93494358		2.07374751		3.78771202		 0.00071557		-0.00007669		 0.00003960	
Si		2.52466877		1.02766818		1.15833332		-0.00039522		-0.00015441		 0.00036929	
Si		6.49305200		8.55407888		3.89195003		 0.00039522		 0.00015441		-0.00036929	
Si		6.63030657		1.35611908		1.36680934		 0.00067842		-0.00038322		 0.00010664	
Si		2.38741419		8.22562797		3.68347401		-0.00067842		 0.00038322		-0.00010664	
Si		7.75121571		5.87595551		1.15833332		-0.00025734		-0.00007399		 0.00042729	
Si		1.26650603		3.70579056		3.89195003		 0.00025734		 0.00007399		-0.00042729	
Si		2.11715338		5.42523065		1.36680934		 0.00064550		-0.00041288		 0.00011299	
Si		6.90056836		4.15651641		3.68347401		-0.00064550		 0.00041288		-0.00011299	
O		0.98369657		0.84865801		0.71643345		-0.00028261		 0.00023808		-0.00012397	
O		8.03402420		8.73308806		4.33384990		 0.00028261		-0.00023808		 0.00012397	
O		8.16230526		1.42294659		1.80870823		 0.00027953		 0.00036985		-0.00006748	
O		0.85541551		8.15879949		3.24157513		-0.00027953		-0.00036985		 0.00006748	
O		6.21024253		5.69694730		0.71643345		-0.00036961		 0.00022575		-0.00015312	
O		2.80747823		3.88479975		4.33384990		 0.00036961		-0.00022575		 0.00015312	
O		3.64915109		5.49205913		1.80870823		 0.00030755		 0.00036453		-0.00006185	
O		5.36856968		4.08968793		3.24157513		-0.00030755		-0.00036453		 0.00006185	
O		3.23782802		2.47579221		1.60477759		 0.00049783		-0.00065409		 0.00027395	
O		5.77989372		7.10595484		3.44550478		-0.00049783		 0.00065409		-0.00027395	
O		6.14115504		2.70805821		0.92036409		 0.00009453		 0.00050756		-0.00076272	
O		2.87656671		6.87368786		4.12991927		-0.00009453		-0.00050756		 0.00076272	
O		8.46437300		7.32407955		1.60477759		 0.00045524		-0.00072501		 0.00025201	
O		0.55334679		2.25766653		3.44550478		-0.00045524		 0.00072501		-0.00025201	
O		1.62799989		6.77716977		0.92036409		 0.00009025		 0.00053269		-0.00076790	
O		7.38972087		2.80457728		4.12991927		-0.00009025		-0.00053269		 0.00076790	
O		1.99963488		0.31449525		5.02720273		-0.00029290		-0.00021450		-0.00024449	
O		7.01808588		9.26725180		0.02307965		 0.00029290		 0.00021450		 0.00024449	
O		5.61189234		0.60347499		2.54822132		-0.00021827		 0.00016601		-0.00052532	
O		3.40583038		8.97827109		2.50206203		 0.00021827		-0.00016601		 0.00052532	
O		7.22618084		5.16278259		5.02720273		-0.00030190		-0.00021598		-0.00025184	
O		1.79153992		4.41896349		0.02307965		 0.00030190		 0.00021598		 0.00025184	
O		1.09873719		4.67258752		2.54822132		-0.00020228		 0.00016943		-0.00053050	
O		7.91898357		4.90915855		2.50206203		 0.00020228		-0.00016943		 0.00053050	
