# total energy = -22460.496194 eV	

CRYSTAL	
PRIMVEC	
		9.73970320		-1.55835685		0.00000000	
		-1.42678656		8.91739627		0.00000000	
		-1.43536787		0.22966359		5.05028113	
PRIMCOORD
   40 1	
Mg		-1.65447645		8.15512796		1.26257078		 0.00073557		 0.00029922		 0.00079300	
Mg		-1.20767798		0.99193190		3.78771134		-0.00073557		-0.00029922		-0.00079300	
Mg		3.92876448		2.91725042		1.26257078		 0.00073616		 0.00030295		 0.00079487	
Mg		2.94878034		4.67145555		3.78771134		-0.00073616		-0.00030295		-0.00079487	
Ca		-0.78898973		2.74583324		1.26257078		-0.00016295		 0.00002219		 0.00051594	
Ca		-2.07316569		6.40122663		3.78771134		 0.00016295		-0.00002219		-0.00051594	
Ca		3.36746760		6.42535689		1.26257078		-0.00017135		 0.00001253		 0.00051916	
Ca		3.51007722		1.16335105		3.78771134		 0.00017135		-0.00001253		-0.00051916	
Si		2.32522553		0.43770228		1.15833246		-0.00003292		 0.00071318		 0.00016655	
Si		4.55231929		7.15100468		3.89194966		 0.00003292		-0.00071318		-0.00016655	
Si		6.43086373		-0.21920031		1.36680909		 0.00012582		 0.00017762		-0.00032448	
Si		0.44668109		7.80790628		3.68347402		-0.00012582		-0.00017762		 0.00032448	
Si		6.48168484		4.11722692		1.15833246		-0.00006601		 0.00071341		 0.00014299	
Si		0.39586097		3.47148103		3.89194966		 0.00006601		-0.00071341		-0.00014299	
Si		0.84762181		5.01867724		1.36680909		 0.00016359		 0.00015280		-0.00031602	
Si		6.02992301		2.57003071		3.68347402		-0.00016359		-0.00015280		 0.00031602	
O		0.79771604		0.62744994		0.71643324		-0.00019542		 0.00014680		 0.00049428	
O		6.07982878		6.96125801		4.33384987		 0.00019542		-0.00014680		-0.00049428	
O		7.97632395		-0.52112843		1.80870832		-0.00091367		-0.00039022		-0.00032992	
O		-1.09877913		8.10983441		3.24157479		 0.00091367		 0.00039022		 0.00032992	
O		4.95417337		4.30697359		0.71643324		-0.00016414		 0.00015109		 0.00051183	
O		1.92337046		3.28173337		4.33384987		 0.00016414		-0.00015109		-0.00051183	
O		2.39308203		4.71674813		1.80870832		-0.00092769		-0.00038304		-0.00033394	
O		4.48446378		2.87195883		3.24157479		 0.00092769		 0.00038304		 0.00033394	
O		2.70237726		1.74154918		1.60477782		 0.00057023		 0.00018418		-0.00004600	
O		4.17516854		5.84715778		3.44550529		-0.00057023		-0.00018418		 0.00004600	
O		5.60570326		1.27701698		0.92036374		 0.00051147		 0.00023151		-0.00008104	
O		1.27184057		6.31168998		4.12991838		-0.00051147		-0.00023151		 0.00008104	
O		6.85883459		5.42107382		1.60477782		 0.00057334		 0.00019413		-0.00004767	
O		0.01871022		2.16763413		3.44550529		-0.00057334		-0.00019413		 0.00004767	
O		0.02246134		6.51489255		0.92036374		 0.00049419		 0.00024706		-0.00008524	
O		6.85508249		1.07381539		4.12991838		-0.00049419		-0.00024706		 0.00008524	
O		1.96230990		-0.16243245		5.02720233		-0.00047906		-0.00042940		 0.00039404	
O		4.91523492		7.75113842		0.02307979		 0.00047906		 0.00042940		-0.00039404	
O		5.57456690		-0.74039286		2.54822134		 0.00085114		-0.00070903		 0.00013794	
O		1.30297792		8.32909981		2.50206176		-0.00085114		 0.00070903		-0.00013794	
O		6.11876921		3.51709318		5.02720233		-0.00046449		-0.00043023		 0.00038429	
O		0.75877561		4.07161476		0.02307979		 0.00046449		 0.00043023		-0.00038429	
O		-0.00867502		4.49748370		2.54822134		 0.00084489		-0.00070164		 0.00012146	
O		6.88621984		3.09122424		2.50206176		-0.00084489		 0.00070164		-0.00012146	
