# total energy = -22460.4950762 eV	

CRYSTAL	
PRIMVEC	
		9.73970320		1.55835685		0.00000000	
		1.42678656		8.91739627		0.00000000	
		-1.43536787		-0.22966359		5.05028113	
PRIMCOORD
   40 1	
Mg		0.93679054		8.04029715		1.26257078		-0.00077728		 0.00040312		-0.00040191	
Mg		-0.94537777		0.64744341		3.78771134		 0.00077728		-0.00040312		 0.00040191	
Mg		5.09324886		4.36077350		1.26257078		-0.00077316		 0.00039793		-0.00040614	
Mg		4.63786415		5.88531899		3.78771134		 0.00077316		-0.00039793		 0.00040614	
Ca		0.07130382		2.63100242		1.26257078		 0.00018163		 0.00025774		-0.00017558	
Ca		-0.07989105		6.05673814		3.78771134		-0.00018163		-0.00025774		 0.00017558	
Ca		5.65454574		7.86887899		1.26257078		 0.00018360		 0.00025731		-0.00017675	
Ca		4.07656727		2.37721350		3.78771134		-0.00018360		-0.00025731		 0.00017675	
Si		2.59114962		1.22432277		1.15833246		-0.00091441		 0.00032554		 0.00077797	
Si		7.13996240		9.02176971		3.89194966		 0.00091441		-0.00032554		-0.00077797	
Si		6.69678781		1.88122536		1.36680909		-0.00038054		 0.00025502		 0.00006625	
Si		3.03432519		8.36486811		3.68347402		 0.00038054		-0.00025502		-0.00006625	
Si		8.17439252		6.46219835		1.15833246		-0.00092383		 0.00031846		 0.00077635	
Si		1.55672048		3.78389414		3.89194966		 0.00092383		-0.00031846		-0.00077635	
Si		2.54032949		5.56074901		1.36680909		-0.00039900		 0.00026808		 0.00004818	
Si		7.19078253		4.68534347		3.68347402		 0.00039900		-0.00026808		-0.00004818	
O		1.04569137		0.92239465		0.71643324		 0.00045917		-0.00016251		 0.00045966	
O		8.68542164		9.32369784		4.33384987		-0.00045917		 0.00016251		-0.00045966	
O		8.22429829		2.07097203		1.80870832		-0.00023877		 0.00044511		-0.00060388	
O		1.50681373		8.17512045		3.24157479		 0.00023877		-0.00044511		 0.00060388	
O		6.62893230		6.16027121		0.71643324		 0.00046120		-0.00016087		 0.00046117	
O		3.10217972		4.08582226		4.33384987		-0.00046120		 0.00016087		-0.00046117	
O		4.06784096		5.75049569		1.80870832		-0.00022493		 0.00044859		-0.00059695	
O		5.66327303		4.49559680		3.24157479		 0.00022493		-0.00044859		 0.00059695	
O		3.41631107		2.72053907		1.60477782		 0.00020373		 0.00007257		-0.00006709	
O		6.31480194		7.52555243		3.44550529		-0.00020373		-0.00007257		 0.00006709	
O		6.31963805		3.18507226		0.92036374		-0.00058637		 0.00036835		 0.00003755	
O		3.41147495		7.06102023		4.12991838		 0.00058637		-0.00036835		-0.00003755	
O		8.99955299		7.95841563		1.60477782		 0.00020678		 0.00007722		-0.00006486	
O		0.73156002		2.28767685		3.44550529		-0.00020678		-0.00007722		 0.00006486	
O		2.16317973		6.86459591		0.92036374		-0.00057727		 0.00034397		 0.00004129	
O		7.56793229		3.38149657		4.12991838		 0.00057727		-0.00034397		-0.00004129	
O		2.01207660		0.47346959		5.02720233		-0.00084700		-0.00088562		 0.00040707	
O		7.71903542		9.77262191		0.02307979		 0.00084700		 0.00088562		-0.00040707	
O		5.62433261		1.05143099		2.54822134		 0.00004585		-0.00033106		 0.00021329	
O		4.10677941		9.19466051		2.50206176		-0.00004585		 0.00033106		-0.00021329	
O		7.59531851		5.71134714		5.02720233		-0.00084642		-0.00089016		 0.00040035	
O		2.13579351		4.53474535		0.02307979		 0.00084642		 0.00089016		-0.00040035	
O		1.46787527		4.73095563		2.54822134		 0.00004293		-0.00033248		 0.00021690	
O		8.26323773		5.51513686		2.50206176		-0.00004293		 0.00033248		-0.00021690	
