# total energy = -12280.8384588 eV

CRYSTAL
PRIMVEC
		3.06442495		0.00000000		0.00000000
		-1.53221247		2.72191724		0.00000000
		0.00000000		0.00000000		22.77199920
PRIMECORD
   22 1
O		0.00000000		1.81461210		15.30961484		0.00000000		 0.00019940		 0.00028562
O		1.53221186		0.90730605		7.46238497		0.00000000		-0.00019940		-0.00028562
O		1.53221186		0.90730605		17.52077579		0.00000000		-0.00018379		 0.00026461
O		0.00000000		1.81461210		5.25122280		0.00000000		 0.00018379		-0.00026461
O		0.00000000		1.81461210		10.28155786		0.00000000		 0.00016939		 0.00046187
O		1.53221186		0.90730605		12.49044164		0.00000000		-0.00016939		-0.00046187
O		0.00000000		1.81461210		20.41965161		0.00000000		 0.00009619		-0.00053706
O		1.53221186		0.90730605		2.35234697		0.00000000		-0.00009619		 0.00053706
O		0.00000000		0.00000000		0.00000000		0.00000000		0.00000000		0.00000000
H		0.00000000		1.81461210		14.32130990		0.00000000		-0.00000955		-0.00043815
H		1.53221186		0.90730605		8.45068899		0.00000000		 0.00000955		 0.00043815
H		0.00000000		1.81461210		9.29097576		-0.00000000		-0.00000905		-0.00041305
H		1.53221186		0.90730605		13.48102375		-0.00000000		 0.00000905		 0.00041305
H		0.00000000		1.81461210		19.42906981		-0.00000000		-0.00021943		 0.00030417
H		1.53221186		0.90730605		3.34292908		-0.00000000		 0.00021943		-0.00030417
H		1.53221186		0.90730605		18.51135759		-0.00000000		-0.00006596		-0.00057783
H		0.00000000		1.81461210		4.26064100		-0.00000000		 0.00006596		 0.00057783
Mg		0.00000000		0.00000000		16.41633375		0.00000000		-0.00000282		-0.00019897
Mg		0.00000000		0.00000000		6.35566484		0.00000000		 0.00000282		 0.00019897
Mg		1.53221186		0.90730605		21.53547952		0.00000000		-0.00042240		-0.00000889
Mg		0.00000000		1.81461210		1.23651998		-0.00000000		 0.00042240		 0.00000889
Mg		0.00000000		0.00000000		11.38599991		0.00000000		0.00000000		0.00000000
