# total energy = -12280.3626065 eV

CRYSTAL
PRIMVEC
		2.90727519		0.00000000		0.00000000
		-1.45363760		2.72191896		0.00000000
		0.00000000		0.00000000		22.77200048
PRIMECORD
   22 1
O		0.00000000		1.81461215		15.30961611		0.00000000		 0.00009936		-0.00002082
O		1.45363702		0.90730593		7.46238554		0.00000000		-0.00009936		 0.00002082
O		1.45363702		0.90730593		17.52077711		0.00000000		-0.00006263		-0.00036498
O		0.00000000		1.81461215		5.25122337		0.00000000		 0.00006263		 0.00036498
O		0.00000000		1.81461215		10.28155867		0.00000000		 0.00005134		 0.00013088
O		1.45363702		0.90730593		12.49044298		0.00000000		-0.00005134		-0.00013088
O		0.00000000		1.81461215		20.41965348		0.00000000		-0.00042791		-0.00032047
O		1.45363702		0.90730593		2.35234730		0.00000000		 0.00042791		 0.00032047
O		0.00000000		0.00000000		0.00000000		0.00000000		-0.00000000		0.00000000
H		0.00000000		1.81461215		14.32131087		0.00000000		 0.00002070		 0.00015352
H		1.45363702		0.90730593		8.45068961		0.00000000		-0.00002070		-0.00015352
H		0.00000000		1.81461215		9.29097674		0.00000000		 0.00001521		 0.00010510
H		1.45363702		0.90730593		13.48102490		0.00000000		-0.00001521		-0.00010510
H		0.00000000		1.81461215		19.42907126		0.00000000		-0.00037142		-0.00015294
H		1.45363702		0.90730593		3.34292922		0.00000000		 0.00037142		 0.00015294
H		1.45363702		0.90730593		18.51135932		0.00000000		-0.00026833		-0.00006124
H		0.00000000		1.81461215		4.26064116		0.00000000		 0.00026833		 0.00006124
Mg		0.00000000		0.00000000		16.41633524		0.00000000		 0.00002168		-0.00008447
Mg		0.00000000		0.00000000		6.35566553		0.00000000		-0.00002168		 0.00008447
Mg		1.45363702		0.90730593		21.53548139		0.00000000		 0.00019906		 0.00014078
Mg		0.00000000		1.81461215		1.23651996		0.00000000		-0.00019906		-0.00014078
Mg		0.00000000		0.00000000		11.38600082		0.00000000		0.00000000		0.00000000
