# total energy = -12280.3123435 eV

CRYSTAL
PRIMVEC
		3.37872498		0.00000000		0.00000000
		-1.68936249		2.72191774		0.00000000
		0.00000000		0.00000000		22.77199822
PRIMECORD
   22 1
O		0.00000000		1.81461183		15.30961479		0.00000000		-0.00046731		-0.00061649
O		1.68936215		0.90730591		7.46238512		0.00000000		 0.00046731		 0.00061649
O		1.68936215		0.90730591		17.52077608		0.00000000		 0.00040187		-0.00089166
O		0.00000000		1.81461183		5.25122282		0.00000000		-0.00040187		 0.00089166
O		0.00000000		1.81461183		10.28155811		0.00000000		-0.00042127		-0.00057153
O		1.68936215		0.90730591		12.49044180		0.00000000		 0.00042127		 0.00057153
O		0.00000000		1.81461183		20.41965183		0.00000000		 0.00027118		 0.00006458
O		1.68936215		0.90730591		2.35234706		0.00000000		-0.00027118		-0.00006458
O		0.00000000		0.00000000		0.00000000		0.00000000		0.00000000		0.00000000
H		0.00000000		1.81461183		14.32131002		0.00000000		 0.00006677		 0.00020284
H		1.68936215		0.90730591		8.45068887		0.00000000		-0.00006677		-0.00020284
H		0.00000000		1.81461183		9.29097608		0.00000000		 0.00006244		 0.00044429
H		1.68936215		0.90730591		13.48102382		0.00000000		-0.00006244		-0.00044429
H		0.00000000		1.81461183		19.42906981		0.00000000		 0.00088955		-0.00069559
H		1.68936215		0.90730591		3.34292908		0.00000000		-0.00088955		 0.00069559
H		1.68936215		0.90730591		18.51135776		-0.00000000		 0.00013592		 0.00028679
H		0.00000000		1.81461183		4.26064113		-0.00000000		-0.00013592		-0.00028679
Mg		0.00000000		0.00000000		16.41633406		0.00000000		 0.00003466		-0.00014462
Mg		0.00000000		0.00000000		6.35566483		0.00000000		-0.00003466		 0.00014462
Mg		1.68936215		0.90730591		21.53547981		0.00000000		 0.00078386		-0.00005712
Mg		0.00000000		1.81461183		1.23652009		0.00000000		-0.00078386		 0.00005712
Mg		0.00000000		0.00000000		11.38599978		0.00000000		0.00000000		0.00000000
