# total energy = -11143.4969329 eV	

CRYSTAL	
PRIMVEC	
		7.44100247		1.19056371		0.00000000	
		0.70559990		4.41000123		0.00000000	
		0.00000000		0.00000000		8.29200259	
PRIMCOORD
   12 1	
Ca		0.32187216		1.12577527		5.64411568		-0.00073251		 0.00021993		-0.00030465	
Ca		7.82472795		4.47478365		2.64788390		 0.00073251		-0.00021993		 0.00030465	
Ca		4.10422746		3.87950405		1.49811589		 0.00073251		-0.00021993		-0.00030465	
Ca		4.04237189		1.72105487		6.79388369		-0.00073251		 0.00021993		 0.00030465	
Si		2.18986000		1.42465393		3.19739501		-0.00016748		 0.00026591		-0.00014185	
Si		5.95674011		4.17590574		5.09460457		 0.00016748		-0.00026591		 0.00014185	
Si		2.23623962		3.58062615		7.34339480		 0.00016748		-0.00026591		-0.00014185	
Si		5.91035973		2.01993428		0.94860478		-0.00016748		 0.00026591		 0.00014185	
Mg		1.24894610		1.27410686		0.52919502		 0.00047560		-0.00048426		-0.00070339	
Mg		6.89765401		4.32645281		7.76280380		-0.00047560		 0.00048426		 0.00070339	
Mg		3.17715352		3.73117321		4.67519481		-0.00047560		 0.00048426		-0.00070339	
Mg		4.96944583		1.86938721		3.61680401		 0.00047560		-0.00048426		 0.00070339	
