# total energy = -11144.7107883 eV	

CRYSTAL	
PRIMVEC	
		7.44100123		0.89291835		0.00000000	
		0.52920092		4.41000265		0.00000000	
		0.00000000		0.00000000		8.29200349	
PRIMCOORD
   12 1	
Ca		0.27777184		1.11995696		5.64411631		-0.00081208		 0.00021268		 0.00020573	
Ca		7.69242806		4.18296329		2.64788418		 0.00081208		-0.00021268		-0.00020573	
Ca		3.97192819		3.73650337		1.49811606		 0.00081208		-0.00021268		 0.00020573	
Ca		3.99827170		1.56641688		6.79388368		-0.00081208		 0.00021268		-0.00020573	
Si		2.14575972		1.34411472		3.19739488		 0.00062797		 0.00006467		-0.00089633	
Si		5.82444018		3.95880478		5.09460486		-0.00062797		-0.00006467		 0.00089633	
Si		2.10394031		3.51234486		7.34339512		-0.00062797		-0.00006467		-0.00089633	
Si		5.86626034		1.79057465		0.94860537		 0.00062797		 0.00006467		 0.00089633	
Mg		1.20484584		1.23120509		0.52919492		-0.00089768		 0.00002479		-0.00018915	
Mg		6.76535406		4.07171367		7.76280407		 0.00089768		-0.00002479		 0.00018915	
Mg		3.04485419		3.62525374		4.67519517		 0.00089768		-0.00002479		-0.00018915	
Mg		4.92534570		1.67766501		3.61680382		-0.00089768		 0.00002479		 0.00018915	
