# total energy = -22445.2191288 eV	

CRYSTAL	
PRIMVEC	
		9.05300306		0.00000000		-1.44848452	
		0.00000000		7.67700190		0.00000000	
		-1.28015737		0.00000000		4.80588702	
PRIMCOORD
   40 1	
Ca		6.57754043		0.51819827		-0.63785082		-0.00039502		 0.00021607		-0.00038914	
Ca		1.19530434		7.15880271		3.99525699		 0.00039502		-0.00021607		 0.00038914	
Ca		1.83538211		4.35669647		1.59231440		 0.00039502		 0.00021607		 0.00038914	
Ca		5.93746358		3.32030268		1.76509177		-0.00039502		-0.00021607		-0.00038914	
Mg		1.67466818		1.25979583		1.58720132		-0.00036433		-0.00020178		 0.00040368	
Mg		6.09817751		6.41720423		1.77020485		 0.00036433		 0.00020178		-0.00040368	
Mg		6.73825436		5.09829586		-0.63273775		 0.00036433		-0.00020178		-0.00040368	
Mg		1.03459042		2.57870420		3.99014483		-0.00036433		 0.00020178		 0.00040368	
Si		4.03194516		1.27438235		1.48380022		-0.00018756		 0.00038167		 0.00031725	
Si		3.74090054		6.40261771		1.87360594		 0.00018756		-0.00038167		-0.00031725	
Si		4.38097830		5.11288147		-0.52933665		 0.00018756		 0.00038167		-0.00031725	
Si		3.39186648		2.56411768		3.88674282		-0.00018756		-0.00038167		 0.00031725	
Si		-0.05111791		6.55846061		1.22009776		-0.00081116		-0.00048488		 0.00013152	
Si		7.82396269		1.11853854		2.13730749		 0.00081116		 0.00048488		-0.00013152	
Si		8.46404046		2.71996057		-0.26563511		 0.00081116		-0.00048488		-0.00013152	
Si		-0.69119476		4.95703858		3.62304219		-0.00081116		 0.00048488		 0.00013152	
O		3.41963679		1.29971577		-0.02768230		 0.00013928		 0.00062035		 0.00007908	
O		4.35320891		6.37728338		3.38508755		-0.00013928		-0.00062035		-0.00007908	
O		4.99328576		5.13821581		0.98214495		-0.00013928		 0.00062035		-0.00007908	
O		2.77955902		2.53878426		2.37526121		 0.00013928		-0.00062035		 0.00007908	
O		3.43272982		3.70875885		-0.15492608		-0.00001142		 0.00004640		 0.00016448	
O		4.34011588		3.96824121		3.51233224		 0.00001142		-0.00004640		-0.00016448	
O		4.98019273		7.54725888		1.10938873		 0.00001142		 0.00004640		-0.00016448	
O		2.79265205		0.12974118		2.24801652		-0.00001142		-0.00004640		 0.00016448	
O		5.22903087		2.25089623		0.39321902		-0.00041723		 0.00042908		 0.00017987	
O		2.54381391		5.42610383		2.96418806		 0.00041723		-0.00042908		-0.00017987	
O		3.18389167		6.08939718		0.56124363		 0.00041723		 0.00042908		-0.00017987	
O		4.58895402		1.58760380		2.79616162		-0.00041723		-0.00042908		 0.00017987	
O		1.01251535		2.69923323		0.83550780		 0.00006759		 0.00019008		 0.00009432	
O		6.76033034		4.97776684		2.52189929		-0.00006759		-0.00019008		-0.00009432	
O		7.40040811		6.53773235		0.11895486		-0.00006759		 0.00019008		-0.00009432	
O		0.37243667		1.13926680		3.23845131		 0.00006759		-0.00019008		 0.00009432	
O		0.70214153		0.22186454		0.80004816		 0.00003032		-0.00087826		 0.00016982	
O		7.07070233		7.45513460		2.55735892		-0.00003032		 0.00087826		-0.00016982	
O		7.71078102		4.06036549		0.15441541		-0.00003032		-0.00087826		-0.00016982	
O		0.06206468		3.61663457		3.20299075		 0.00003032		 0.00087826		 0.00016982	
O		0.89056435		5.44299248		0.17728444		-0.00012856		 0.00020830		 0.00010575	
O		6.88228043		2.23400667		3.18012265		 0.00012856		-0.00020830		-0.00010575	
O		7.52235912		1.60449336		0.77718005		 0.00012856		 0.00020830		-0.00010575	
O		0.25048566		6.07250671		2.58022703		-0.00012856		-0.00020830		 0.00010575	
