# total energy = -22452.1806479 eV	

CRYSTAL	
PRIMVEC	
		9.05300003		0.00000000		0.36211964	
		0.00000000		7.67700339		0.00000000	
		-0.33576340		0.00000000		4.70095945	
PRIMCOORD
   40 1	
Ca		6.66263079		0.51819766		0.69127179		-0.00027736		-0.00012239		-0.00048393	
Ca		2.05460312		7.15880301		4.37180549		 0.00027736		 0.00012239		 0.00048393	
Ca		2.22248573		4.35669664		2.02132667		 0.00027736		-0.00012239		 0.00048393	
Ca		6.49474819		3.32030313		3.04174970		-0.00027736		 0.00012239		-0.00048393	
Mg		2.05544482		1.25979636		1.98305894		-0.00068522		 0.00050047		-0.00004837	
Mg		6.66178910		6.41720341		3.08001743		 0.00068522		-0.00050047		 0.00004837	
Mg		6.82967170		5.09829624		0.72954042		 0.00068522		 0.00050047		 0.00004837	
Mg		1.88756221		2.57870353		4.33353776		-0.00068522		-0.00050047		-0.00004837	
Si		4.46891404		1.27438153		2.36010351		-0.00027570		-0.00026390		-0.00017750	
Si		4.24832078		6.40261733		2.70297377		 0.00027570		 0.00026390		 0.00017750	
Si		4.41620338		5.11288141		0.35249495		 0.00027570		-0.00026390		 0.00017750	
Si		4.30102962		2.56411835		4.71058324		-0.00027570		 0.00026390		-0.00017750	
Si		0.19763371		6.55846069		1.24967516		-0.00030702		 0.00028433		 0.00030479	
Si		8.51959929		1.11853907		3.81340302		 0.00030702		-0.00028433		-0.00030479	
Si		8.68748281		2.71996081		1.46292420		 0.00030702		 0.00028433		-0.00030479	
Si		0.02975111		4.95703896		3.60015398		-0.00030702		-0.00028433		 0.00030479	
O		3.52625777		1.29971577		0.67330533		-0.00036278		 0.00063505		 0.00039132	
O		5.19097615		6.37728400		4.38977285		 0.00036278		-0.00063505		-0.00039132	
O		5.35885875		5.13821566		2.03929403		 0.00036278		 0.00063505		-0.00039132	
O		3.35837516		2.53878411		3.02378415		-0.00036278		-0.00063505		 0.00039132	
O		3.51366404		3.70875907		0.54457021		-0.00016896		 0.00035796		 0.00003723	
O		5.20357078		3.96824070		4.51850798		 0.00016896		-0.00035796		-0.00003723	
O		5.37145339		7.54725896		2.16802916		 0.00016896		 0.00035796		-0.00003723	
O		3.34578052		0.12974081		2.89504812		-0.00016896		-0.00035796		 0.00003723	
O		5.48146553		2.25089592		1.47941474		-0.00014515		-0.00005106		-0.00027753	
O		3.23576747		5.42610385		3.58366254		 0.00014515		 0.00005106		 0.00027753	
O		3.40365099		6.08939671		1.23318372		 0.00014515		-0.00005106		 0.00027753	
O		5.31358293		1.58760396		3.82989266		-0.00014515		 0.00005106		-0.00027753	
O		1.21725763		2.69923279		1.07076987		-0.00058526		-0.00008792		-0.00043664	
O		7.49997538		4.97776697		3.99230741		 0.00058526		 0.00008792		 0.00043664	
O		7.66785889		6.53773268		1.64182859		 0.00058526		-0.00008792		 0.00043664	
O		1.04937502		1.13926709		3.42124778		-0.00058526		 0.00008792		-0.00043664	
O		0.88941378		0.22186532		0.97044041		 0.00011473		 0.00027061		 0.00026690	
O		7.82782013		7.45513444		4.09263778		-0.00011473		-0.00027061		-0.00026690	
O		7.99570274		4.06036611		1.74215896		-0.00011473		 0.00027061		-0.00026690	
O		0.72153117		3.61663456		3.32091923		 0.00011473		-0.00027061		 0.00026690	
O		0.95619862		5.44299304		0.36589776		-0.00003552		 0.00055495		 0.00019903	
O		7.76103439		2.23400673		4.69717952		 0.00003552		-0.00055495		-0.00019903	
O		7.92891791		1.60449316		2.34670070		 0.00003552		 0.00055495		-0.00019903	
O		0.78831601		6.07250661		2.71637658		-0.00003552		-0.00055495		 0.00019903	
