# total energy = -22452.4869863 eV	

CRYSTAL	
PRIMVEC	
		9.05299733		0.00000000		0.72423797	
		0.00000000		7.67700422		0.00000000	
		-0.14689103		0.00000000		4.67996955	
PRIMCOORD
   40 1	
Ca		6.67964921		0.51819819		0.95709576		 0.00044127		 0.00013819		-0.00029239	
Ca		2.22646255		7.15880330		4.44711630		-0.00044127		-0.00013819		 0.00029239	
Ca		2.29990715		4.35669667		2.10712971		-0.00044127		 0.00013819		 0.00029239	
Ca		6.60620369		3.32030301		3.29708235		 0.00044127		-0.00013819		-0.00029239	
Mg		2.13160095		1.25979626		2.06223141		 0.00059340		 0.00000340		 0.00062178	
Mg		6.77451080		6.41720433		3.34198065		-0.00059340		-0.00000340		-0.00062178	
Mg		6.84795632		5.09829565		1.00199497		-0.00059340		 0.00000340		-0.00062178	
Mg		2.05815635		2.57870403		4.40221709		 0.00059340		-0.00000340		 0.00062178	
Si		4.55630736		1.27438183		2.53536510		-0.00042419		 0.00011145		 0.00046490	
Si		4.34980531		6.40261785		2.86884696		 0.00042419		-0.00011145		-0.00046490	
Si		4.42324901		5.11288212		0.52886128		 0.00042419		 0.00011145		-0.00046490	
Si		4.48286275		2.56411756		4.87535078		-0.00042419		-0.00011145		 0.00046490	
Si		0.24738432		6.55846093		1.25559133		-0.00049139		 0.00055086		-0.00065489	
Si		8.65872652		1.11853875		4.14862073		 0.00049139		-0.00055086		 0.00065489	
Si		8.73217204		2.71996064		1.80863505		 0.00049139		 0.00055086		 0.00065489	
Si		0.17393972		4.95703905		3.59557610		-0.00049139		-0.00055086		-0.00065489	
O		3.54758268		1.29971585		0.81350238		 0.00022381		-0.00079000		-0.00050941	
O		5.35852908		6.37728383		4.59070968		-0.00022381		 0.00079000		 0.00050941	
O		5.43197368		5.13821615		2.25072400		-0.00022381		-0.00079000		 0.00050941	
O		3.47413808		2.53878353		3.15348806		 0.00022381		 0.00079000		-0.00050941	
O		3.52985113		3.70875866		0.68446914		 0.00003073		 0.00006721		-0.00028590	
O		5.37626062		3.96824102		4.71974292		-0.00003073		-0.00006721		 0.00028590	
O		5.44970614		7.54725896		2.37975724		-0.00003073		 0.00006721		 0.00028590	
O		3.45640562		0.12974072		3.02445391		 0.00003073		-0.00006721		-0.00028590	
O		5.53195294		2.25089565		1.69665402		-0.00061172		-0.00059044		 0.00052913	
O		3.37415881		5.42610403		3.70755803		 0.00061172		 0.00059044		-0.00052913	
O		3.44760251		6.08939685		1.36757235		 0.00061172		-0.00059044		-0.00052913	
O		5.45850925		1.58760374		4.03663971		-0.00061172		 0.00059044		 0.00052913	
O		1.25820692		2.69923296		1.11782219		-0.00061647		 0.00015086		 0.00066906	
O		7.64790483		4.97776672		4.28638987		 0.00061647		-0.00015086		-0.00066906	
O		7.72134853		6.53773326		1.94640419		 0.00061647		 0.00015086		-0.00066906	
O		1.18476323		1.13926733		3.45780787		-0.00061647		-0.00015086		 0.00066906	
O		0.92686930		0.22186503		1.00451793		 0.00050616		 0.00067066		 0.00015853	
O		7.97924246		7.45513465		4.39969413		-0.00050616		-0.00067066		-0.00015853	
O		8.05268706		4.06036623		2.05970754		-0.00050616		 0.00067066		-0.00015853	
O		0.85342470		3.61663527		3.34450361		 0.00050616		-0.00067066		 0.00015853	
O		0.96932638		5.44299278		0.40362065		 0.00007980		 0.00052531		-0.00015637	
O		7.93678628		2.23400690		5.00059050		-0.00007980		-0.00052531		 0.00015637	
O		8.01022998		1.60449339		2.66060482		-0.00007980		 0.00052531		 0.00015637	
O		0.89588178		6.07250720		2.74360724		 0.00007980		-0.00052531		-0.00015637	
