# total energy = -22452.160873 eV	

CRYSTAL	
PRIMVEC	
		9.05300003		0.00000000		-0.36211964	
		0.00000000		7.67700339		0.00000000	
		-0.71352102		0.00000000		4.74292648	
PRIMCOORD
   40 1	
Ca		6.62859510		0.51819766		0.15962329		-0.00003762		-0.00000592		-0.00024259	
Ca		1.71088392		7.15880301		4.22118717		 0.00003762		 0.00000592		 0.00024259	
Ca		2.06764533		4.35669664		1.84972212		 0.00003762		-0.00000592		 0.00024259	
Ca		6.27183369		3.32030313		2.53108653		-0.00003762		 0.00000592		-0.00024259	
Mg		1.90313404		1.25979636		1.82471586		-0.00009584		 0.00065711		-0.00022309	
Mg		6.43634498		6.41720341		2.55609279		 0.00009584		-0.00065711		 0.00022309	
Mg		6.79310549		5.09829624		0.18462865		 0.00009584		 0.00065711		 0.00022309	
Mg		1.54637263		2.57870353		4.19618091		-0.00009584		-0.00065711		-0.00022309	
Si		4.29412572		1.27438153		2.00958189		 0.00021835		 0.00001652		 0.00017639	
Si		4.04535330		6.40261733		2.37122677		-0.00021835		-0.00001652		-0.00017639	
Si		4.40211290		5.11288141		-0.00023828		-0.00021835		 0.00001652		-0.00017639	
Si		3.93736521		2.56411835		4.38104694		 0.00021835		-0.00001652		 0.00017639	
Si		0.09813326		6.55846069		1.23784430		 0.00076290		-0.00023650		 0.00039501	
Si		8.24134485		1.11853907		3.14296526		-0.00076290		 0.00023650		-0.00039501	
Si		8.59810536		2.71996081		0.77150020		-0.00076290		-0.00023650		-0.00039501	
Si		-0.25862815		4.95703896		3.60930845		 0.00076290		 0.00023650		 0.00039501	
O		3.48361032		1.29971577		0.39290996		 0.00029939		 0.00052995		-0.00042431	
O		4.85586870		6.37728400		3.98789870		-0.00029939		-0.00052995		 0.00042431	
O		5.21263012		5.13821566		1.61643455		-0.00029939		 0.00052995		 0.00042431	
O		3.12684890		2.53878411		2.76437501		 0.00029939		-0.00052995		-0.00042431	
O		3.48128999		3.70875907		0.26477099		-0.00023431		 0.00015988		-0.00031351	
O		4.85818903		3.96824070		4.11603766		 0.00023431		-0.00015988		 0.00031351	
O		5.21494954		7.54725896		1.74457261		 0.00023431		 0.00015988		 0.00031351	
O		3.12452858		0.12974081		2.63623605		-0.00023431		-0.00015988		-0.00031351	
O		5.38049189		2.25089592		1.04493641		-0.00070848		 0.00044456		 0.00029114	
O		2.95898623		5.42610385		3.33587315		 0.00070848		-0.00044456		-0.00029114	
O		3.31574673		6.08939671		0.96440810		 0.00070848		 0.00044456		-0.00029114	
O		5.02373047		1.58760396		3.41640056		-0.00070848		-0.00044456		 0.00029114	
O		1.13536122		2.69923279		0.97666479		-0.00011324		 0.00080153		-0.00068983	
O		7.20411780		4.97776697		3.40414386		 0.00011324		-0.00080153		 0.00068983	
O		7.56087831		6.53773268		1.03267972		 0.00011324		 0.00080153		 0.00068983	
O		0.77859981		1.13926709		3.34812894		-0.00011324		-0.00080153		-0.00068983	
O		0.81450463		0.22186532		0.90228294		-0.00022128		 0.00068770		-0.00013381	
O		7.52497258		7.45513444		3.47852571		 0.00022128		-0.00068770		 0.00013381	
O		7.88173399		4.06036611		1.10706156		 0.00022128		 0.00068770		 0.00013381	
O		0.45774503		3.61663456		3.27374800		-0.00022128		-0.00068770		-0.00013381	
O		0.92994476		5.44299304		0.29045224		 0.00067069		-0.00060884		-0.00023753	
O		7.40953335		2.23400673		4.09035641		-0.00067069		 0.00060884		 0.00023753	
O		7.76629477		1.60449316		1.71889227		-0.00067069		-0.00060884		 0.00023753	
O		0.57318425		6.07250661		2.66191729		 0.00067069		 0.00060884		-0.00023753	
