# total energy = -22449.0006912 eV	

CRYSTAL	
PRIMVEC	
		9.05300144		0.00000000		-1.08635798	
		0.00000000		7.67700270		0.00000000	
		-1.09127256		0.00000000		4.78489882	
PRIMCOORD
   40 1	
Ca		6.59455905		0.51819764		-0.37202598		 0.00013544		 0.00007481		 0.00025978	
Ca		1.36716436		7.15880324		4.07056682		-0.00013544		-0.00007481		-0.00025978	
Ca		1.91280337		4.35669716		1.67811741		-0.00013544		 0.00007481		-0.00025978	
Ca		6.04892095		3.32030280		2.02042434		 0.00013544		-0.00007481		 0.00025978	
Mg		1.75082302		1.25979596		1.66637258		-0.00006692		-0.00035558		 0.00000864	
Mg		6.21090039		6.41720401		2.03216826		 0.00006692		 0.00035558		-0.00000864	
Mg		6.75653941		5.09829639		-0.36028297		 0.00006692		-0.00035558		-0.00000864	
Mg		1.20518400		2.57870357		4.05882290		-0.00006692		 0.00035558		 0.00000864	
Si		4.11933872		1.27438194		1.65906089		 0.00026370		 0.00016313		 0.00000679	
Si		3.84238468		6.40261803		2.03947994		-0.00026370		-0.00016313		-0.00000679	
Si		4.38802279		5.11288237		-0.35297129		-0.00026370		 0.00016313		-0.00000679	
Si		3.57369971		2.56411759		4.05151122		 0.00026370		-0.00016313		 0.00000679	
Si		-0.00136769		6.55846109		1.22601396		-0.00031989		 0.00009646		 0.00005472	
Si		7.96309110		1.11853887		2.47252688		 0.00031989		-0.00009646		-0.00005472	
Si		8.50872920		2.71996065		0.08007565		 0.00031989		 0.00009646		-0.00005472	
Si		-0.54700580		4.95703931		3.61846428		-0.00031989		-0.00009646		 0.00005472	
O		3.44096061		1.29971616		0.11251457		-0.00030029		-0.00027095		-0.00006969	
O		4.52076188		6.37728381		3.58602535		 0.00030029		 0.00027095		 0.00006969	
O		5.06640090		5.13821568		1.19357503		 0.00030029		-0.00027095		 0.00006969	
O		2.89532160		2.53878428		2.50496581		-0.00030029		 0.00027095		-0.00006969	
O		3.44891694		3.70875932		-0.01502729		-0.00011646		 0.00023200		-0.00016497	
O		4.51280738		3.96824064		3.71356722		 0.00011646		-0.00023200		 0.00016497	
O		5.05844640		7.54725885		1.32111689		 0.00011646		 0.00023200		 0.00016497	
O		2.90327792		0.12974111		2.37742303		-0.00011646		-0.00023200		-0.00016497	
O		5.27951836		2.25089599		0.61045760		 0.00023600		-0.00015425		-0.00033807	
O		2.68220505		5.42610397		3.08808324		-0.00023600		 0.00015425		 0.00033807	
O		3.22784407		6.08939734		0.69563200		-0.00023600		-0.00015425		 0.00033807	
O		4.73388025		1.58760444		3.00290792		 0.00023600		 0.00015425		-0.00033807	
O		1.05346407		2.69923282		0.88255998		-0.00025781		-0.00003779		 0.00037034	
O		6.90826025		4.97776714		2.81598086		 0.00025781		 0.00003779		-0.00037034	
O		7.45389835		6.53773326		0.42352962		 0.00025781		-0.00003779		-0.00037034	
O		0.50782506		1.13926670		3.27501030		-0.00025781		 0.00003779		 0.00037034	
O		0.73959693		0.22186522		0.83412635		-0.00026772		 0.00007652		-0.00013945	
O		7.22212739		7.45513474		2.86441358		 0.00026772		-0.00007652		 0.00013945	
O		7.76776458		4.06036566		0.47196417		 0.00026772		 0.00007652		 0.00013945	
O		0.19395791		3.61663522		3.22657667		-0.00026772		-0.00007652		-0.00013945	
O		0.90369083		5.44299314		0.21500579		 0.00004852		 0.00011591		 0.00003174	
O		7.05803167		2.23400682		3.48353414		-0.00004852		-0.00011591		-0.00003174	
O		7.60367069		1.60449271		1.09108382		-0.00004852		 0.00011591		-0.00003174	
O		0.35805181		6.07250726		2.60745702		 0.00004852		-0.00011591		 0.00003174	
