# total energy = -21541.4983628 eV	

CRYSTAL	
PRIMVEC	
		5.18479989		0.00000000		0.00000000	
		0.00000000		8.92299913		0.00000000	
		-0.14435001		-0.11066955		8.72878689	
PRIMCOORD
   42 1	
Mg		0.00000000		0.00000000		0.00000000		0.00000000		0.00000000		0.00000000	
Mg		2.59239994		4.46150008		0.00000000		0.00000000		0.00000000		0.00000000	
Mg		2.59239994		1.48648316		0.00000000		-0.00022509		-0.00023439		 0.00032187	
Mg		2.59239994		7.43651804		0.00000000		 0.00022509		 0.00023439		-0.00032187	
Mg		0.00000000		5.94798273		0.00000000		-0.00023120		-0.00014367		 0.00032470	
Mg		0.00000000		2.97501692		0.00000000		 0.00023120		 0.00014367		-0.00032470	
Si		4.28040591		1.45641910		2.54007805		-0.00021582		-0.00045890		 0.00001842	
Si		0.76004293		7.35591099		6.18871195		 0.00021582		 0.00045890		-0.00001842	
Si		1.68800597		5.91791867		2.54007805		-0.00019665		 0.00012478		 0.00014859	
Si		3.35244287		2.89440987		6.18871195		 0.00019665		-0.00012478		-0.00014859	
Si		1.68800597		2.94067073		2.54007805		-0.00013768		-0.00055640		 0.00003364	
Si		3.35244287		5.87165884		6.18871195		 0.00013768		 0.00055640		-0.00003364	
Si		4.28040591		7.40217081		2.54007805		-0.00015483		 0.00007210		-0.00007354	
Si		0.76004293		1.41015876		6.18871195		 0.00015483		-0.00007210		 0.00007354	
O		1.71272606		2.95861169		1.02650587		 0.00035501		 0.00040633		-0.00010846	
O		3.32772382		5.85371788		7.70228362		-0.00035501		-0.00040633		 0.00010846	
O		4.30512600		7.42011177		1.02650587		 0.00034501		 0.00033122		-0.00012861	
O		0.73532387		1.39221780		7.70228362		-0.00034501		-0.00033122		 0.00012861	
O		4.30512600		1.47694780		1.02650587		-0.00021928		-0.00009545		-0.00005295	
O		0.73532387		7.33538177		7.70228362		 0.00021928		 0.00009545		 0.00005295	
O		1.71272606		5.93844788		1.02650587		-0.00020841		-0.00016354		-0.00003651	
O		3.32772382		2.87388169		7.70228362		 0.00020841		 0.00016354		 0.00003651	
O		1.71012899		-0.01246219		0.98286178		 0.00029445		 0.00013919		-0.00015368	
O		3.33031985		-0.09820892		7.74592771		-0.00029445		-0.00013919		 0.00015368	
O		4.30252893		4.44903893		0.98286178		 0.00030481		 0.00015009		-0.00009727	
O		0.73792094		4.36329116		7.74592771		-0.00030481		-0.00015009		 0.00009727	
O		1.77272715		4.42297598		3.03849183		-0.00001071		-0.00012598		-0.00009157	
O		3.26772168		4.38935411		5.69029766		 0.00001071		 0.00012598		 0.00009157	
O		4.36512710		-0.03852514		3.03849183		 0.00003092		-0.00015829		-0.00022023	
O		0.67532174		-0.07214597		5.69029766		-0.00003092		 0.00015829		 0.00022023	
O		2.93016995		2.11174100		3.04547472		-0.00018653		 0.00032275		-0.00019542	
O		2.11027888		6.70058910		5.68331477		 0.00018653		-0.00032275		 0.00019542	
O		0.33777001		6.57324108		3.04547472		 0.00031657		-0.00005468		-0.00023871	
O		4.70267986		2.23908901		5.68331477		-0.00031657		 0.00005468		 0.00023871	
O		0.33771816		2.27253305		3.04547472		 0.00009280		 0.00014446		-0.00002587	
O		4.70273067		6.53979705		5.68331477		-0.00009280		-0.00014446		 0.00002587	
O		2.93011914		6.73403261		3.04547472		-0.00042137		-0.00023829		 0.00001325	
O		2.11033073		2.07829593		5.68331477		 0.00042137		 0.00023829		-0.00001325	
H		1.69733912		-0.00881416		1.77194373		 0.00021655		 0.00002593		 0.00039609	
H		3.34311075		8.82114373		6.95684472		-0.00021655		-0.00002593		-0.00039609	
H		4.28973907		4.45268592		1.77194373		 0.00021673		 0.00002426		 0.00035103	
H		0.75071081		4.35964313		6.95684472		-0.00021673		-0.00002426		-0.00035103	
