# total energy = -21542.264703 eV	

CRYSTAL	
PRIMVEC	
		5.18479989		0.00000000		0.00000000	
		0.00000000		8.92299913		0.00000000	
		-0.14435001		-0.11066955		9.87731340	
PRIMCOORD
   42 1	
Mg		0.00000000		0.00000000		0.00000000		0.00000000		0.00000000		0.00000000	
Mg		2.59239994		4.46150008		0.00000000		0.00000000		0.00000000		0.00000000	
Mg		2.59239994		1.48648316		0.00000000		-0.00009690		 0.00039471		 0.00025222	
Mg		2.59239994		7.43651804		0.00000000		 0.00009690		-0.00039471		-0.00025222	
Mg		0.00000000		5.94798273		0.00000000		-0.00009621		 0.00041251		 0.00025307	
Mg		0.00000000		2.97501692		0.00000000		 0.00009621		-0.00041251		-0.00025307	
Si		4.28040591		1.45641910		2.87429907		-0.00005918		 0.00010623		-0.00004489	
Si		0.76004293		7.35591099		7.00301588		 0.00005918		-0.00010623		 0.00004489	
Si		1.68800597		5.91791867		2.87429907		-0.00006171		 0.00018354		-0.00004911	
Si		3.35244287		2.89440987		7.00301588		 0.00006171		-0.00018354		 0.00004911	
Si		1.68800597		2.94067073		2.87429907		 0.00006399		-0.00003484		-0.00011010	
Si		3.35244287		5.87165884		7.00301588		-0.00006399		 0.00003484		 0.00011010	
Si		4.28040591		7.40217081		2.87429907		 0.00006326		 0.00002590		-0.00010655	
Si		0.76004293		1.41015876		7.00301588		-0.00006326		-0.00002590		 0.00010655	
O		1.71272606		2.95861169		1.16157198		 0.00020543		-0.00021838		 0.00004743	
O		3.32772382		5.85371788		8.71574194		-0.00020543		 0.00021838		-0.00004743	
O		4.30512600		7.42011177		1.16157198		 0.00020320		-0.00022232		 0.00002480	
O		0.73532387		1.39221780		8.71574194		-0.00020320		 0.00022232		-0.00002480	
O		4.30512600		1.47694780		1.16157198		 0.00018369		 0.00034781		 0.00013711	
O		0.73532387		7.33538177		8.71574194		-0.00018369		-0.00034781		-0.00013711	
O		1.71272606		5.93844788		1.16157198		 0.00018552		 0.00034470		 0.00015708	
O		3.32772382		2.87388169		8.71574194		-0.00018552		-0.00034470		-0.00015708	
O		1.71012899		-0.01246219		1.11218572		-0.00006772		-0.00016502		-0.00040434	
O		3.33031985		-0.09820892		8.76512871		 0.00006772		 0.00016502		 0.00040434	
O		4.30252893		4.44903893		1.11218572		-0.00007181		-0.00016642		 0.00011869	
O		0.73792094		4.36329116		8.76512871		 0.00007181		 0.00016642		-0.00011869	
O		1.77272715		4.42297598		3.43829279		 0.00010729		-0.00007848		-0.00022592	
O		3.26772168		4.38935411		6.43902061		-0.00010729		 0.00007848		 0.00022592	
O		4.36512710		-0.03852514		3.43829279		 0.00010050		-0.00006426		-0.00024221	
O		0.67532174		-0.07214597		6.43902061		-0.00010050		 0.00006426		 0.00024221	
O		2.93016995		2.11174100		3.44619494		-0.00013392		 0.00006677		 0.00014396	
O		2.11027888		6.70058910		6.43112001		 0.00013392		-0.00006677		-0.00014396	
O		0.33777001		6.57324108		3.44619494		-0.00008728		 0.00002763		 0.00014535	
O		4.70267986		2.23908901		6.43112001		 0.00008728		-0.00002763		-0.00014535	
O		0.33771816		2.27253305		3.44619494		-0.00000949		-0.00010377		-0.00012496	
O		4.70273067		6.53979705		6.43112001		 0.00000949		 0.00010377		 0.00012496	
O		2.93011914		6.73403261		3.44619494		-0.00005578		-0.00014305		-0.00012844	
O		2.11033073		2.07829593		6.43112001		 0.00005578		 0.00014305		 0.00012844	
H		1.69733912		-0.00881416		2.00509485		-0.00035112		 0.00002217		 0.00020825	
H		3.34311075		8.82114373		7.87221907		 0.00035112		-0.00002217		-0.00020825	
H		4.28973907		4.45268592		2.00509485		-0.00035224		 0.00002251		-0.00026434	
H		0.75071081		4.35964313		7.87221907		 0.00035224		-0.00002251		 0.00026434	
