# total energy = -2552.80427751 eV	

CRYSTAL	
PRIMVEC	
		3.14199968		0.00000000		0.00000000	
		-1.57099984		2.72105027		0.00000000	
		0.00000000		0.00000000		4.28939826	
PRIMCOORD
   5 1	
Mg		0.00000000		0.00000000		0.00000000		0.00000000		-0.00000000		0.00000000	
O		0.00000000		1.81403477		0.95053094		0.00000000		0.00000000		-0.00002952	
O		1.57099984		0.90701676		3.33886858		0.00000000		0.00000000		 0.00002952	
H		0.00000000		1.81403477		1.84572875		0.00000000		-0.00000000		 0.00013469	
H		1.57099984		0.90701676		2.44367077		0.00000000		0.00000000		-0.00013469	
