# total energy = -2552.82367584 eV	

CRYSTAL	
PRIMVEC	
		3.14199968		0.00000000		0.00000000	
		-1.57099984		2.72105027		0.00000000	
		0.00000000		0.00000000		5.00430059	
PRIMCOORD
   5 1	
Mg		0.00000000		0.00000000		0.00000000		0.00000000		0.00000000		0.00000000	
O		0.00000000		1.81403477		1.10895276		0.00000000		-0.00000000		 0.00012308	
O		1.57099984		0.90701676		3.89534657		0.00000000		0.00000000		-0.00012308	
H		0.00000000		1.81403477		2.15334969		0.00000000		-0.00000000		-0.00000740	
H		1.57099984		0.90701676		2.85094965		0.00000000		-0.00000000		 0.00000740	
