# total energy = -2552.86622577 eV	

CRYSTAL	
PRIMVEC	
		3.14199968		0.00000000		0.00000000	
		-1.57099984		2.72105027		0.00000000	
		0.00000000		0.00000000		4.52770009	
PRIMCOORD
   5 1	
Mg		0.00000000		0.00000000		0.00000000		-0.00000000		0.00000000		0.00000000	
O		0.00000000		1.81403477		1.00333790		0.00000000		0.00000000		 0.00003416	
O		1.57099984		0.90701676		3.52436156		0.00000000		-0.00000000		-0.00003416	
H		0.00000000		1.81403477		1.94826885		0.00000000		-0.00000000		 0.00001825	
H		1.57099984		0.90701676		2.57943061		0.00000000		0.00000000		-0.00001825	
