# total energy = -2552.84457461 eV	

CRYSTAL	
PRIMVEC	
		3.14199968		0.00000000		0.00000000	
		-1.57099984		2.72105027		0.00000000	
		0.00000000		0.00000000		4.88514968	
PRIMCOORD
   5 1	
Mg		0.00000000		0.00000000		0.00000000		-0.00000000		0.00000000		0.00000000	
O		0.00000000		1.81403477		1.08254897		0.00000000		-0.00000000		 0.00025021	
O		1.57099984		0.90701676		3.80260071		0.00000000		0.00000000		-0.00025021	
H		0.00000000		1.81403477		2.10207979		0.00000000		0.00000000		-0.00029895	
H		1.57099984		0.90701676		2.78306958		0.00000000		-0.00000000		 0.00029895	
