# total energy = -20638.8575075 eV

CRYSTAL
PRIMVEC
		4.74599980		0.00000000		0.00000000
		0.00000000		10.17999872		0.00000000
		0.00000000		0.00000000		5.97600159
PRIMECORD
   28 1
Si		2.02227004		0.95590179		1.49399992		-0.00084104		-0.00006497		0.00000000
Si		2.72372881		9.22409741		4.48199977		 0.00084104		 0.00006497		0.00000000
Si		4.39527089		4.13409805		4.48199977		-0.00084104		 0.00006497		0.00000000
Si		0.35072891		6.04590162		1.49399992		 0.00084104		-0.00006497		0.00000000
Mg		0.00000000		0.00000000		0.00000000		0.00000000		0.00000000		-0.00000000
Mg		2.37299990		5.08999984		0.00000000		0.00000000		0.00000000		0.00000000
Mg		0.00000000		0.00000000		2.98799984		0.00000000		0.00000000		0.00000000
Mg		2.37299990		5.08999984		2.98799984		0.00000000		0.00000000		0.00000000
Mg		4.70518373		2.82189602		1.49399992		-0.00020457		 0.00020309		-0.00000000
Mg		0.04081607		7.35810365		4.48199977		 0.00020457		-0.00020309		-0.00000000
Mg		2.33218383		2.26810381		4.48199977		-0.00020457		-0.00020309		-0.00000000
Mg		2.41381503		7.91189586		1.49399992		 0.00020457		 0.00020309		-0.00000000
O		3.63590997		0.93554192		1.49399992		-0.00031952		-0.00024287		0.00000000
O		1.11008888		9.24445775		4.48199977		 0.00031952		 0.00024287		0.00000000
O		1.26291102		4.15445791		4.48199977		-0.00031952		 0.00024287		0.00000000
O		3.48308878		6.02554176		1.49399992		 0.00031952		-0.00024287		0.00000000
O		1.04506916		4.54944185		1.49399992		-0.00027872		-0.00017800		0.00000000
O		3.70093065		5.63055782		4.48199977		 0.00027872		 0.00017800		0.00000000
O		3.41806906		0.54055799		4.48199977		-0.00027872		 0.00017800		0.00000000
O		1.32793074		9.63944168		1.49399992		 0.00027872		-0.00017800		0.00000000
O		1.31796415		1.65730408		0.19900120		-0.00020750		-0.00003007		 0.00015881
O		3.42803566		8.52269559		5.77699897		 0.00020750		 0.00003007		-0.00015881
O		3.69096405		3.43269575		5.77699897		-0.00020750		 0.00003007		-0.00015881
O		1.05503576		6.74730392		0.19900120		 0.00020750		-0.00003007		 0.00015881
O		3.42803566		8.52269559		3.18700104		 0.00020750		 0.00003007		 0.00015881
O		1.31796415		1.65730408		2.78899865		-0.00020750		-0.00003007		-0.00015881
O		1.05503576		6.74730392		2.78899865		 0.00020750		-0.00003007		-0.00015881
O		3.69096405		3.43269575		3.18700104		-0.00020750		 0.00003007		 0.00015881
