# total energy = -18361.2069416 eV

CRYSTAL
PRIMVEC
		5.05574997		0.00000000		0.00000000
		0.00000000		11.07999963		0.00000000
		0.00000000		0.00000000		6.37000229
PRIMECORD
   28 1
Mg		0.00000000		0.00000000		0.00000000		0.00000000		0.00000000		0.00000000
Mg		2.52787499		5.53999982		0.00000000		0.00000000		0.00000000		0.00000000
Mg		0.00000000		0.00000000		3.18500013		0.00000000		0.00000000		0.00000000
Mg		2.52787499		5.53999982		3.18500013		0.00000000		0.00000000		0.00000000
Ca		4.96980222		2.84756017		1.59250007		 0.00092171		 0.00014201		0.00000000
Ca		0.08594775		8.23243997		4.77750020		-0.00092171		-0.00014201		-0.00000000
Ca		2.44192724		2.69244015		4.77750020		 0.00092171		-0.00014201		0.00000000
Ca		2.61382274		8.38755999		1.59250007		-0.00092171		 0.00014201		0.00000000
Si		2.03746724		0.95287995		1.59250007		-0.00047009		-0.00047913		0.00000000
Si		3.01828273		10.12712019		4.77750020		 0.00047009		 0.00047913		0.00000000
Si		4.56534223		4.58711987		4.77750020		-0.00047009		 0.00047913		0.00000000
Si		0.49040775		6.49287976		1.59250007		 0.00047009		-0.00047913		-0.00000000
O		3.86259298		0.74236004		1.59250007		-0.00013799		-0.00003028		0.00000000
O		1.19315699		10.33764010		4.77750020		 0.00013799		 0.00003028		0.00000000
O		1.33471799		4.79763978		4.77750020		-0.00013799		 0.00003028		0.00000000
O		3.72103198		6.28235985		1.59250007		 0.00013799		-0.00003028		0.00000000
O		3.72103198		5.14111985		1.59250007		-0.00056809		-0.00051691		-0.00000000
O		1.33471799		5.93887978		4.77750020		 0.00056809		 0.00051691		0.00000000
O		1.19315699		0.39887997		4.77750020		-0.00056809		 0.00051691		0.00000000
O		3.86259298		10.68112017		1.59250007		 0.00056809		-0.00051691		0.00000000
O		1.26393800		1.69523998		0.19109977		-0.00050941		 0.00002824		 0.00020505
O		3.79181299		9.38476015		6.17890000		 0.00050941		-0.00002824		-0.00020505
O		3.79181299		3.84475983		6.17890000		-0.00050941		-0.00002824		-0.00020505
O		1.26393800		7.23523980		0.19109977		 0.00050941		 0.00002824		 0.00020505
O		3.79181299		9.38476015		3.37609990		 0.00050941		-0.00002824		 0.00020505
O		1.26393800		1.69523998		2.99389986		-0.00050941		 0.00002824		-0.00020505
O		1.26393800		7.23523980		2.99389986		 0.00050941		 0.00002824		-0.00020505
O		3.79181299		3.84475983		3.37609990		-0.00050941		-0.00002824		 0.00020505
