# total energy = -18381.3317844 eV

CRYSTAL
PRIMVEC
		4.33349983		0.00000000		0.00000000
		0.00000000		11.08000069		0.00000000
		0.00000000		0.00000000		6.36999773
PRIMECORD
   28 1
Mg		0.00000000		0.00000000		0.00000000		-0.00000000		-0.00000000		-0.00000000
Mg		2.16674991		5.53999991		0.00000000		-0.00000000		0.00000000		0.00000000
Mg		0.00000000		0.00000000		3.18499973		0.00000000		-0.00000000		-0.00000000
Mg		2.16674991		5.53999991		3.18499973		0.00000000		0.00000000		0.00000000
Ca		4.25982990		2.84756007		1.59250008		 0.00033877		-0.00031997		0.00000000
Ca		0.07366993		8.23243976		4.77749982		-0.00033877		 0.00031997		0.00000000
Ca		2.09308085		2.69243984		4.77749982		 0.00033877		 0.00031997		0.00000000
Ca		2.24041984		8.38755955		1.59250008		-0.00033877		-0.00031997		-0.00000000
Si		1.74640086		0.95287984		1.59250008		 0.00034035		-0.00021426		0.00000000
Si		2.58709983		10.12711955		4.77749982		-0.00034035		 0.00021426		0.00000000
Si		3.91315078		4.58711964		4.77749982		 0.00034035		 0.00021426		-0.00000000
Si		0.42034992		6.49287976		1.59250008		-0.00034035		-0.00021426		0.00000000
O		3.31079387		0.74236015		1.59250008		-0.00082157		 0.00030520		-0.00000000
O		1.02270596		10.33763967		4.77749982		 0.00082157		-0.00030520		0.00000000
O		1.14404395		4.79763976		4.77749982		-0.00082157		-0.00030520		0.00000000
O		3.18945587		6.28235963		1.59250008		 0.00082157		 0.00030520		0.00000000
O		3.18945587		5.14111989		1.59250008		-0.00010236		 0.00006330		0.00000000
O		1.14404395		5.93887994		4.77749982		 0.00010236		-0.00006330		0.00000000
O		1.02270596		0.39888002		4.77749982		-0.00010236		-0.00006330		0.00000000
O		3.31079387		10.68111937		1.59250008		 0.00010236		 0.00006330		0.00000000
O		1.08337496		1.69524000		0.19109998		-0.00029434		-0.00035549		 0.00077021
O		3.25012487		9.38475983		6.17889993		 0.00029434		 0.00035549		-0.00077021
O		3.25012487		3.84475991		6.17889993		-0.00029434		 0.00035549		-0.00077021
O		1.08337496		7.23523991		0.19109998		 0.00029434		-0.00035549		 0.00077021
O		3.25012487		9.38475983		3.37609971		 0.00029434		 0.00035549		 0.00077021
O		1.08337496		1.69524000		2.99389976		-0.00029434		-0.00035549		-0.00077021
O		1.08337496		7.23523991		2.99389976		 0.00029434		-0.00035549		-0.00077021
O		3.25012487		3.84475991		3.37609971		-0.00029434		 0.00035549		 0.00077021
