# total energy = -11146.4866471 eV	

CRYSTAL	
PRIMVEC	
		7.44099980		0.00000000		0.00000000	
		0.00000000		4.63049697		0.00000000	
		0.00000000		0.00000000		8.29199718	
PRIMCOORD
   12 1	
Ca		0.14547229		1.15762461		5.64411591		 0.00007978		0.00000000		 0.00016865	
Ca		7.29552751		3.47287459		2.64788424		-0.00007978		0.00000000		-0.00016865	
Ca		3.57502761		3.47287459		1.49811584		-0.00007978		-0.00000000		 0.00016865	
Ca		3.86597219		1.15762461		6.79388358		 0.00007978		0.00000000		-0.00016865	
Si		2.01346014		1.15762461		3.19739464		 0.00085105		-0.00000000		 0.00075480	
Si		5.42753966		3.47287459		5.09460478		-0.00085105		0.00000000		-0.00075480	
Si		1.70703976		3.47287459		7.34339471		-0.00085105		-0.00000000		 0.00075480	
Si		5.73396003		1.15762461		0.94860470		 0.00085105		0.00000000		-0.00075480	
Mg		1.07254571		1.15762461		0.52919498		 0.00006733		0.00000000		-0.00045900	
Mg		6.36845409		3.47287459		7.76280369		-0.00006733		-0.00000000		 0.00045900	
Mg		2.64795419		3.47287459		4.67519505		-0.00006733		0.00000000		-0.00045900	
Mg		4.79304561		1.15762461		3.61680361		 0.00006733		0.00000000		 0.00045900	
