# total energy = -11145.773725 eV	

CRYSTAL	
PRIMVEC	
		7.44099980		0.00000000		0.00000000	
		0.00000000		3.96899953		0.00000000	
		0.00000000		0.00000000		8.29199718	
PRIMCOORD
   12 1	
Ca		0.14547229		0.99224988		5.64411591		-0.00049828		-0.00000000		 0.00058171	
Ca		7.29552751		2.97674965		2.64788424		 0.00049828		0.00000000		-0.00058171	
Ca		3.57502761		2.97674965		1.49811584		 0.00049828		0.00000000		 0.00058171	
Ca		3.86597219		0.99224988		6.79388358		-0.00049828		-0.00000000		-0.00058171	
Si		2.01346014		0.99224988		3.19739464		-0.00081057		0.00000000		-0.00070071	
Si		5.42753966		2.97674965		5.09460478		 0.00081057		0.00000000		 0.00070071	
Si		1.70703976		2.97674965		7.34339471		 0.00081057		0.00000000		-0.00070071	
Si		5.73396003		0.99224988		0.94860470		-0.00081057		0.00000000		 0.00070071	
Mg		1.07254571		0.99224988		0.52919498		-0.00070298		0.00000000		-0.00027392	
Mg		6.36845409		2.97674965		7.76280369		 0.00070298		-0.00000000		 0.00027392	
Mg		2.64795419		2.97674965		4.67519505		 0.00070298		0.00000000		-0.00027392	
Mg		4.79304561		0.99224988		3.61680361		-0.00070298		0.00000000		 0.00027392	
