# total energy = -11146.657354 eV	

CRYSTAL	
PRIMVEC	
		7.44099980		0.00000000		0.00000000	
		0.00000000		4.52025112		0.00000000	
		0.00000000		0.00000000		8.29199718	
PRIMCOORD
   12 1	
Ca		0.14547229		1.13006166		5.64411591		-0.00032235		0.00000000		 0.00034827	
Ca		7.29552751		3.39018722		2.64788424		 0.00032235		0.00000000		-0.00034827	
Ca		3.57502761		3.39018722		1.49811584		 0.00032235		0.00000000		 0.00034827	
Ca		3.86597219		1.13006166		6.79388358		-0.00032235		0.00000000		-0.00034827	
Si		2.01346014		1.13006166		3.19739464		-0.00052975		0.00000000		 0.00023423	
Si		5.42753966		3.39018722		5.09460478		 0.00052975		0.00000000		-0.00023423	
Si		1.70703976		3.39018722		7.34339471		 0.00052975		0.00000000		 0.00023423	
Si		5.73396003		1.13006166		0.94860470		-0.00052975		0.00000000		-0.00023423	
Mg		1.07254571		1.13006166		0.52919498		 0.00036384		0.00000000		 0.00026687	
Mg		6.36845409		3.39018722		7.76280369		-0.00036384		0.00000000		-0.00026687	
Mg		2.64795419		3.39018722		4.67519505		-0.00036384		0.00000000		 0.00026687	
Mg		4.79304561		1.13006166		3.61680361		 0.00036384		0.00000000		-0.00026687	
