# total energy = -18534.1187344 eV	

CRYSTAL	
PRIMVEC	
		5.03744997		0.00000000		0.00000000	
		-2.51872498		4.05819488		0.00000000	
		0.00000000		0.00000000		13.29099942	
PRIMCOORD
   30 1	
O		1.53239178		0.13229704		3.21110586		 0.00010273		-0.00026813		-0.00019952	
O		0.98633321		3.92589784		10.07989406		-0.00010273		 0.00026813		 0.00019952	
O		4.14808818		1.16835391		3.21110586		-0.00009394		-0.00007574		-0.00051144	
O		-1.62936319		2.88984097		10.07989406		 0.00009394		 0.00007574		 0.00051144	
O		1.87569500		2.75754293		3.21110586		 0.00026262		-0.00024208		-0.00057592	
O		0.64302998		1.30065094		10.07989406		-0.00026262		 0.00024208		 0.00057592	
O		4.05111676		1.48502917		7.64143883		 0.00007612		-0.00026528		-0.00022174	
O		0.98633321		1.22043409		1.21922812		-0.00006583		 0.00025333		 0.00025296	
O		1.62936319		2.52108604		7.64143883		-0.00009947		-0.00006811		-0.00053280	
O		3.40808678		0.18437722		1.21922812		 0.00011320		 0.00009690		 0.00055766	
O		1.87569500		0.05208018		7.64143883		 0.00023711		-0.00023486		-0.00060094	
O		3.16175497		2.65338307		1.21922812		-0.00026101		 0.00024764		 0.00061189	
O		1.53239178		2.83775979		12.07177281		 0.00006583		-0.00025333		-0.00025296	
O		-1.53239178		2.57316622		5.64956109		-0.00007612		 0.00026528		 0.00022174	
O		-0.88936179		3.87381817		12.07177281		-0.00011320		-0.00009690		-0.00055766	
O		0.88936179		1.53710884		5.64956109		 0.00009947		 0.00006811		 0.00053280	
O		-0.64302998		1.40481181		12.07177281		 0.00026101		-0.00024764		-0.00061189	
O		0.64303099		4.00611520		5.64956109		-0.00023711		 0.00023486		 0.00060094	
Mg		0.00000000		0.00000000		4.76615306		 0.00024920		 0.00042407		 0.00015990	
Mg		0.00000000		0.00000000		8.52484686		-0.00024920		-0.00042407		-0.00015990	
Mg		2.51872498		1.35273213		9.19648603		 0.00022062		 0.00045549		 0.00015375	
Mg		2.51872498		1.35273213		12.95518084		-0.00023184		-0.00042103		-0.00024182	
Mg		0.00000000		2.70546275		0.33581908		 0.00023184		 0.00042103		 0.00024182	
Mg		0.00000000		2.70546275		4.09451389		-0.00022062		-0.00045549		-0.00015375	
Si		0.00000000		0.00000000		2.08668708		-0.00001414		 0.00049692		 0.00012480	
Si		0.00000000		0.00000000		11.20431284		 0.00001414		-0.00049692		-0.00012480	
Si		2.51872498		1.35273213		6.51702106		-0.00002599		 0.00049322		 0.00008875	
Si		2.51872498		1.35273213		2.34364589		 0.00003673		-0.00049636		-0.00008535	
Si		0.00000000		2.70546275		10.94735403		-0.00003673		 0.00049636		 0.00008535	
Si		0.00000000		2.70546275		6.77397987		 0.00002599		-0.00049322		-0.00008875	
