# total energy = -18530.6652323 eV	

CRYSTAL	
PRIMVEC	
		4.33454971		0.00000000		0.00000000	
		-2.16727486		4.05819616		0.00000000	
		0.00000000		0.00000000		13.29099944	
PRIMCOORD
   30 1	
O		1.31857002		0.13229696		3.21110595		 0.00019381		-0.00014248		-0.00021880	
O		0.84870483		3.92589790		10.07989350		-0.00019381		 0.00014248		 0.00021880	
O		3.56928496		1.16835404		3.21110595		 0.00009519		 0.00018321		 0.00093241	
O		-1.40201010		2.88984083		10.07989350		-0.00009519		-0.00018321		-0.00093241	
O		1.61397002		2.75754300		3.21110595		 0.00024706		-0.00012796		 0.00011440	
O		0.55330484		1.30065099		10.07989350		-0.00024706		 0.00012796		-0.00011440	
O		3.48584488		1.48502887		7.64143837		 0.00018684		-0.00014676		-0.00024590	
O		0.84870483		1.22043408		1.21922778		-0.00019168		 0.00013421		 0.00028136	
O		1.40201010		2.52108594		7.64143837		 0.00010089		 0.00017630		 0.00089549	
O		2.93253961		0.18437701		1.21922778		-0.00008831		-0.00018446		-0.00086639	
O		1.61397002		0.05208005		7.64143837		 0.00023942		-0.00012420		 0.00009838	
O		2.72057969		2.65338290		1.21922778		-0.00024634		 0.00013495		-0.00006567	
O		1.31857002		2.83775991		12.07177210		 0.00019168		-0.00013421		-0.00028136	
O		-1.31857002		2.57316599		5.64956064		-0.00018684		 0.00014676		 0.00024590	
O		-0.76526475		3.87381785		12.07177210		 0.00008831		 0.00018446		 0.00086639	
O		0.76526475		1.53710892		5.64956064		-0.00010089		-0.00017630		-0.00089549	
O		-0.55330484		1.40481196		12.07177210		 0.00024634		-0.00013495		 0.00006567	
O		0.55330484		4.00611481		5.64956064		-0.00023942		 0.00012420		-0.00009838	
Mg		0.00000000		0.00000000		4.76615253		-0.00021223		-0.00063957		-0.00017909	
Mg		0.00000000		0.00000000		8.52484648		 0.00021223		 0.00063957		 0.00017909	
Mg		2.16727486		1.35273191		9.19648539		-0.00022433		-0.00064083		-0.00016466	
Mg		2.16727486		1.35273191		12.95518020		 0.00023072		 0.00064003		 0.00021677	
Mg		0.00000000		2.70546295		0.33581881		-0.00023072		-0.00064003		-0.00021677	
Mg		0.00000000		2.70546295		4.09451362		 0.00022433		 0.00064083		 0.00016466	
Si		0.00000000		0.00000000		2.08668691		 0.00021349		-0.00042648		-0.00071885	
Si		0.00000000		0.00000000		11.20431210		-0.00021349		 0.00042648		 0.00071885	
Si		2.16727486		1.35273191		6.51702063		 0.00022220		-0.00042819		-0.00072353	
Si		2.16727486		1.35273191		2.34364595		-0.00022063		 0.00042545		 0.00072129	
Si		0.00000000		2.70546295		10.94735306		 0.00022063		-0.00042545		-0.00072129	
Si		0.00000000		2.70546295		6.77397968		-0.00022220		 0.00042819		 0.00072353	
