# total energy = -18533.8421401 eV	

CRYSTAL	
PRIMVEC	
		4.56884980		0.00000000		0.00000000	
		-2.28442490		4.05819402		0.00000000	
		0.00000000		0.00000000		13.29099880	
PRIMCOORD
   30 1	
O		1.38984411		0.13229699		3.21110597		-0.00018869		-0.00077792		-0.00030075	
O		0.89458079		3.92589795		10.07989374		 0.00018869		 0.00077792		 0.00030075	
O		3.76221982		1.16835404		3.21110597		 0.00012195		-0.00022790		 0.00004093	
O		-1.47779492		2.88984090		10.07989374		-0.00012195		 0.00022790		-0.00004093	
O		1.70121077		2.75754300		3.21110597		-0.00032503		-0.00007081		-0.00020378	
O		0.58321413		1.30065102		10.07989374		 0.00032503		 0.00007081		 0.00020378	
O		3.67426901		1.48502878		7.64143875		-0.00018458		-0.00076050		-0.00031916	
O		0.89458079		1.22043390		1.21922772		 0.00019511		 0.00074895		 0.00031744	
O		1.47779401		2.52108584		7.64143875		 0.00011454		-0.00022654		 0.00002636	
O		3.09105487		0.18437685		1.21922772		-0.00010703		 0.00023932		-0.00002545	
O		1.70121077		0.05207986		7.64143875		-0.00030635		-0.00007560		-0.00022661	
O		2.86763903		2.65338282		1.21922772		 0.00029059		 0.00007397		 0.00023040	
O		1.38984411		2.83775967		12.07177245		-0.00019511		-0.00074895		-0.00031744	
O		-1.38984411		2.57316570		5.64956096		 0.00018458		 0.00076050		 0.00031916	
O		-0.80662997		3.87381763		12.07177245		 0.00010703		-0.00023932		 0.00002545	
O		0.80662997		1.53710910		5.64956096		-0.00011454		 0.00022654		-0.00002636	
O		-0.58321413		1.40481212		12.07177245		-0.00029059		-0.00007397		-0.00023040	
O		0.58321413		4.00611462		5.64956096		 0.00030635		 0.00007560		 0.00022661	
Mg		0.00000000		0.00000000		4.76615283		-0.00014242		 0.00018264		-0.00029043	
Mg		0.00000000		0.00000000		8.52484642		 0.00014242		-0.00018264		 0.00029043	
Mg		2.28442490		1.35273180		9.19648561		-0.00011730		 0.00020723		-0.00032276	
Mg		2.28442490		1.35273180		12.95518057		 0.00012896		-0.00018713		 0.00020180	
Mg		0.00000000		2.70546268		0.33581914		-0.00012896		 0.00018713		-0.00020180	
Mg		0.00000000		2.70546268		4.09451364		 0.00011730		-0.00020723		 0.00032276	
Si		0.00000000		0.00000000		2.08668691		 0.00005963		 0.00006993		-0.00041715	
Si		0.00000000		0.00000000		11.20431235		-0.00005963		-0.00006993		 0.00041715	
Si		2.28442490		1.35273180		6.51702060		 0.00006203		 0.00006920		-0.00035597	
Si		2.28442490		1.35273180		2.34364587		-0.00006858		-0.00007183		 0.00027620	
Si		0.00000000		2.70546268		10.94735338		 0.00006858		 0.00007183		-0.00027620	
Si		0.00000000		2.70546268		6.77397957		-0.00006203		-0.00006920		 0.00035597	
