# total energy = -18518.1854175 eV

CRYSTAL
PRIMVEC
		7.37730009		0.00000000		0.00000000
		0.00000000		6.22799789		0.00000000
		-0.45612371		0.00000000		4.23980076
PRIMECORD
   30 1
Mg		0.17511202		1.55699984		2.28101471		 0.00030276		-0.00000000		 0.00000893
Mg		6.74606584		4.67100026		1.95878974		-0.00030276		-0.00000000		-0.00000893
Mg		4.96716492		1.55699984		3.88789986		-0.00007571		0.00000000		 0.00057361
Mg		1.95401293		4.67100026		0.35190385		 0.00007571		0.00000000		-0.00057361
Mg		2.94651800		1.55699984		0.17807179		-0.00013206		-0.00000000		-0.00040864
Mg		3.97465986		4.67100026		4.06173192		 0.00013206		-0.00000000		 0.00040864
Si		0.00000000		0.00000000		0.00000000		0.00000000		-0.00000000		0.00000000
Si		0.00000000		3.11399968		0.00000000		0.00000000		0.00000000		0.00000000
Si		2.18136067		3.12645625		2.35309093		-0.00013507		 0.00002983		-0.00031630
Si		4.73981572		3.10154385		1.88671278		 0.00013507		-0.00002983		 0.00031630
Si		4.73981572		0.01245583		1.88671278		 0.00013507		 0.00002983		 0.00031630
Si		2.18136067		6.21554427		2.35309093		-0.00013507		-0.00002983		-0.00031630
O		5.77896524		3.48767985		0.59357314		 0.00024992		-0.00060408		 0.00030988
O		1.14221336		2.74032025		3.64623205		-0.00024992		 0.00060408		-0.00030988
O		1.14221336		0.37368017		3.64623205		-0.00024992		-0.00060408		-0.00030988
O		5.77896524		5.85431993		0.59357314		 0.00024992		 0.00060408		 0.00030988
O		6.15637832		2.74654817		2.77707175		-0.00015504		 0.00030880		 0.00015751
O		0.76480027		3.48145193		1.46273270		 0.00015504		-0.00030880		-0.00015751
O		0.76480027		5.86054785		1.46273270		 0.00015504		 0.00030880		-0.00015751
O		6.15637832		0.36745225		2.77707175		-0.00015504		-0.00030880		 0.00015751
O		2.06177685		1.55699984		1.81887629		-0.00002471		0.00000000		 0.00000005
O		4.85940101		4.67100026		2.42092816		 0.00002471		0.00000000		-0.00000005
O		3.26796615		3.45654027		1.03027168		 0.00028270		-0.00029340		-0.00025768
O		3.65321171		2.77145983		3.20953203		-0.00028270		 0.00029340		 0.00025768
O		3.65321171		0.34253985		3.20953203		-0.00028270		-0.00029340		 0.00025768
O		3.26796615		5.88546025		1.03027168		 0.00028270		 0.00029340		-0.00025768
O		4.60821501		1.55699984		1.32705899		 0.00024498		-0.00000000		 0.00065871
O		2.31296285		4.67100026		2.91274620		-0.00024498		-0.00000000		-0.00065871
O		7.16208876		1.55699984		0.49181730		 0.00007708		0.00000000		-0.00045236
O		-0.24091090		4.67100026		3.74798715		-0.00007708		0.00000000		 0.00045236
