# total energy = -18520.7051012 eV

CRYSTAL
PRIMVEC
		7.72859967		0.00000000		0.00000000
		0.00000000		6.22799930		0.00000000
		-0.47784386		0.00000000		4.23980158
PRIMECORD
   30 1
Mg		0.18345068		1.55699982		2.28101504		 0.00018962		0.00000000		-0.00008650
Mg		7.06730667		4.67099947		1.95878963		-0.00018962		0.00000000		 0.00008650
Mg		5.20369707		1.55699982		3.88789989		-0.00005522		0.00000000		 0.00029497
Mg		2.04706106		4.67099947		0.35190401		 0.00005522		0.00000000		-0.00029497
Mg		3.08682821		1.55699982		0.17807235		-0.00017145		0.00000000		-0.00053018
Mg		4.16392991		4.67099947		4.06173155		 0.00017145		0.00000000		 0.00053018
Si		0.00000000		0.00000000		0.00000000		0.00000000		-0.00000000		-0.00000000
Si		0.00000000		3.11399965		0.00000000		0.00000000		0.00000000		0.00000000
Si		2.28523563		3.12645583		2.35309119		 0.00001242		 0.00008650		-0.00037949
Si		4.96552172		3.10154424		1.88671271		-0.00001242		-0.00008650		 0.00037949
Si		4.96552172		0.01245618		1.88671271		-0.00001242		 0.00008650		 0.00037949
Si		2.28523563		6.21554389		2.35309119		 0.00001242		-0.00008650		-0.00037949
O		6.05415295		3.48767976		0.59357268		 0.00044864		-0.00050722		 0.00035759
O		1.19660518		2.74031954		3.64623198		-0.00044864		 0.00050722		-0.00035759
O		1.19660518		0.37368011		3.64623198		-0.00044864		-0.00050722		-0.00035759
O		6.05415295		5.85431996		0.59357268		 0.00044864		 0.00050722		 0.00035759
O		6.44953806		2.74654802		2.77707212		-0.00038740		 0.00050428		 0.00039608
O		0.80121929		3.48145206		1.46273332		 0.00038740		-0.00050428		-0.00039608
O		0.80121929		5.86054767		1.46273332		 0.00038740		 0.00050428		-0.00039608
O		6.44953806		0.36745163		2.77707212		-0.00038740		-0.00050428		 0.00039608
O		2.15995658		1.55699982		1.81887570		-0.00035183		0.00000000		-0.00016157
O		5.09080078		4.67099947		2.42092820		 0.00035183		0.00000000		 0.00016157
O		3.42358262		3.45653969		1.03027180		 0.00038892		-0.00023779		-0.00034707
O		3.82717473		2.77145961		3.20953210		-0.00038892		 0.00023779		 0.00034707
O		3.82717473		0.34254004		3.20953210		-0.00038892		-0.00023779		 0.00034707
O		3.42358262		5.88546003		1.03027180		 0.00038892		 0.00023779		-0.00034707
O		4.82765355		1.55699982		1.32705930		 0.00018219		0.00000000		 0.00042297
O		2.42310380		4.67099947		2.91274614		-0.00018219		0.00000000		-0.00042297
O		7.50314096		1.55699982		0.49181717		-0.00004719		0.00000000		-0.00045192
O		-0.25238283		4.67099947		3.74798673		 0.00004719		0.00000000		 0.00045192
