# total energy = -7175.09086733 eV	

CRYSTAL	
PRIMVEC	
		3.26759989		0.00000000		0.00000000	
		-1.63379994		2.69507064		0.00000000	
		0.00000000		0.00000000		12.76799952	
PRIMCOORD
   12 1	
O		0.00000000		1.79671398		5.27829068		0.00000000		-0.00041814		-0.00021381	
O		1.63379994		0.89835699		7.48970884		0.00000000		 0.00041814		 0.00021381	
O		0.00000000		1.79671398		10.41613372		-0.00000000		-0.00013684		 0.00003031	
O		1.63379994		0.89835699		2.35186482		0.00000000		 0.00013684		-0.00003031	
O		0.00000000		0.00000000		0.00000000		0.00000000		0.00000000		0.00000000	
H		0.00000000		1.79671398		4.28877093		0.00000000		-0.00010953		 0.00019604	
H		1.63379994		0.89835699		8.47922761		0.00000000		 0.00010953		-0.00019604	
H		0.00000000		1.79671398		9.42533665		0.00000000		 0.00051828		-0.00012096	
H		1.63379994		0.89835699		3.34266189		0.00000000		-0.00051828		 0.00012096	
Mg		0.00000000		0.00000000		6.38399976		0.00000000		0.00000000		0.00000000	
Mg		1.63379994		0.89835699		11.53333363		0.00000000		 0.00084273		-0.00020702	
Mg		0.00000000		1.79671398		1.23466589		0.00000000		-0.00084273		 0.00020702	
