# total energy = -7175.19359434 eV	

CRYSTAL	
PRIMVEC	
		3.18979973		0.00000000		0.00000000	
		-1.59489986		2.69507136		0.00000000	
		0.00000000		0.00000000		12.76799956	
PRIMCOORD
   12 1	
O		0.00000000		1.79671371		5.27829048		0.00000000		-0.00022982		-0.00052931	
O		1.59489986		0.89835701		7.48970845		0.00000000		 0.00022982		 0.00052931	
O		0.00000000		1.79671371		10.41613311		0.00000000		-0.00014369		 0.00025714	
O		1.59489986		0.89835701		2.35186486		0.00000000		 0.00014369		-0.00025714	
O		0.00000000		0.00000000		0.00000000		0.00000000		0.00000000		0.00000000	
H		0.00000000		1.79671371		4.28877058		0.00000000		-0.00006040		 0.00072274	
H		1.59489986		0.89835701		8.47922739		0.00000000		 0.00006040		-0.00072274	
H		0.00000000		1.79671371		9.42533634		0.00000000		 0.00024286		 0.00003901	
H		1.59489986		0.89835701		3.34266163		0.00000000		-0.00024286		-0.00003901	
Mg		0.00000000		0.00000000		6.38399946		0.00000000		0.00000000		0.00000000	
Mg		1.59489986		0.89835701		11.53333303		0.00000000		 0.00055016		-0.00054868	
Mg		0.00000000		1.79671371		1.23466589		-0.00000000		-0.00055016		 0.00054868	
