# total energy = -7175.21482032 eV	

CRYSTAL	
PRIMVEC	
		3.03419993		0.00000000		0.00000000	
		-1.51709997		2.69507044		0.00000000	
		0.00000000		0.00000000		12.76799828	
PRIMCOORD
   12 1	
O		0.00000000		1.79671393		5.27829087		0.00000000		 0.00021691		-0.00014844	
O		1.51709997		0.89835712		7.48970893		0.00000000		-0.00021691		 0.00014844	
O		0.00000000		1.79671393		10.41613378		0.00000000		 0.00020461		 0.00014815	
O		1.51709997		0.89835712		2.35186480		0.00000000		-0.00020461		-0.00014815	
O		0.00000000		0.00000000		0.00000000		0.00000000		0.00000000		0.00000000	
H		0.00000000		1.79671393		4.28877091		0.00000000		 0.00009765		 0.00013425	
H		1.51709997		0.89835712		8.47922767		0.00000000		-0.00009765		-0.00013425	
H		0.00000000		1.79671393		9.42533672		0.00000000		-0.00017882		-0.00002618	
H		1.51709997		0.89835712		3.34266186		0.00000000		 0.00017882		 0.00002618	
Mg		0.00000000		0.00000000		6.38399975		0.00000000		0.00000000		0.00000000	
Mg		1.51709997		0.89835712		11.53333378		0.00000000		-0.00047728		-0.00029348	
Mg		0.00000000		1.79671393		1.23466602		0.00000000		 0.00047728		 0.00029348	
