# total energy = -18390.7262576 eV	

CRYSTAL	
PRIMVEC	
		11.10980014		0.00000000		-0.44439156	
		0.00000000		6.38939622		0.00000000	
		-0.19312042		0.00000000		4.82809950	
PRIMCOORD
   28 1	
Mg		0.00000000		0.00000000		0.00000000		0.00000000		0.00000000		0.00000000	
Mg		5.45833764		0.00000000		2.19185397		0.00000000		0.00000000		0.00000000	
Mg		0.00000000		3.19470033		0.00000000		0.00000000		0.00000000		0.00000000	
Mg		5.45833764		3.19470033		2.19185397		0.00000000		0.00000000		0.00000000	
Ca		2.88686845		1.59735017		4.59620044		 0.00006367		-0.00000000		 0.00023935	
Ca		8.02980905		4.79204939		-0.21249250		-0.00006367		-0.00000000		-0.00023935	
Ca		2.38705581		4.79204939		2.20600583		-0.00014000		-0.00000000		-0.00041387	
Ca		8.52961946		1.59735017		2.17770211		 0.00014000		0.00000000		 0.00041387	
Si		0.82674531		1.59735017		1.94800789		-0.00024568		0.00000000		 0.00020402	
Si		10.08993107		4.79204939		2.43570005		 0.00024568		0.00000000		-0.00020402	
Si		4.47285310		4.79204939		4.21235123		-0.00043155		0.00000000		-0.00026858	
Si		6.44382329		1.59735017		0.17135671		 0.00043155		0.00000000		 0.00026858	
O		0.71888630		1.59735017		3.56579753		 0.00027203		0.00000000		-0.00003929	
O		10.19779120		4.79204939		0.81791041		-0.00027203		0.00000000		 0.00003929	
O		4.64455115		4.79204939		0.99858346		 0.00009389		-0.00000000		-0.00025884	
O		6.27212523		1.59735017		3.38512336		-0.00009389		-0.00000000		 0.00025884	
O		4.94090299		1.59735017		0.98817637		 0.00031508		0.00000000		-0.00055882	
O		5.97577228		4.79204939		3.39553156		-0.00031508		0.00000000		 0.00055882	
O		0.42241771		4.79204939		3.57910326		 0.00038570		0.00000000		-0.00003926	
O		10.49425757		1.59735017		0.80460468		-0.00038570		0.00000000		 0.00003926	
O		1.58624816		0.29199554		1.25395851		-0.00034302		 0.00085849		 0.00005574	
O		9.33042822		6.09740401		3.12974943		 0.00034302		-0.00085849		-0.00005574	
O		3.76652758		6.09740401		3.57693511		 0.00002344		 0.00028357		 0.00039802	
O		7.15014769		0.29199554		0.80677282		-0.00002344		-0.00028357		-0.00039802	
O		9.33042822		3.48669588		3.12974943		 0.00034302		 0.00085849		-0.00005574	
O		1.58624816		2.90270368		1.25395851		-0.00034302		-0.00085849		 0.00005574	
O		7.15014769		2.90270368		0.80677282		-0.00002344		 0.00028357		-0.00039802	
O		3.76652758		3.48669588		3.57693511		 0.00002344		-0.00028357		 0.00039802	
