# total energy = -18390.7262309 eV	

CRYSTAL	
PRIMVEC	
		11.10980014		0.00000000		0.44439156	
		0.00000000		6.38939622		0.00000000	
		0.19312042		0.00000000		4.82809950	
PRIMCOORD
   28 1	
Mg		0.00000000		0.00000000		0.00000000		0.00000000		0.00000000		0.00000000	
Mg		5.65146139		0.00000000		2.63624553		0.00000000		0.00000000		0.00000000	
Mg		0.00000000		3.19470033		0.00000000		0.00000000		0.00000000		0.00000000	
Mg		5.65146139		3.19470033		2.63624553		0.00000000		0.00000000		0.00000000	
Ca		3.26440559		1.59735017		4.84225136		 0.00013618		-0.00000000		-0.00041264	
Ca		8.03851831		4.79204939		0.43023970		-0.00013618		-0.00000000		 0.00041264	
Ca		2.57147030		4.79204939		2.40434647		-0.00006643		0.00000000		 0.00024157	
Ca		8.73145360		1.59735017		2.86814458		 0.00006643		0.00000000		-0.00024157	
Si		0.98548454		1.59735017		2.02049726		 0.00042998		0.00000000		-0.00026869	
Si		10.31743825		4.79204939		3.25199491		-0.00042998		0.00000000		 0.00026869	
Si		4.82471719		4.79204939		4.58425341		 0.00024828		0.00000000		 0.00020286	
Si		6.47820782		1.59735017		0.68823764		-0.00024828		0.00000000		-0.00020286	
O		1.00691136		1.59735017		3.63483010		-0.00007885		0.00000000		-0.00025839	
O		10.29601365		4.79204939		1.63766207		 0.00007885		0.00000000		 0.00025839	
O		4.73945134		4.79204939		1.37394356		-0.00027841		0.00000000		-0.00003862	
O		6.56347145		1.59735017		3.89854750		 0.00027841		0.00000000		 0.00003862	
O		5.03591993		1.59735017		1.38724929		-0.00038545		0.00000000		-0.00004109	
O		6.26700397		4.79204939		3.88524288		 0.00038545		0.00000000		 0.00004109	
O		0.71055951		4.79204939		3.62442190		-0.00031265		0.00000000		-0.00056114	
O		10.59236439		1.59735017		1.64807027		 0.00031265		0.00000000		 0.00056114	
O		1.69181006		0.29199554		1.38508115		-0.00002959		-0.00028627		 0.00039468	
O		9.61111384		6.09740401		3.88741102		 0.00002959		 0.00028627		-0.00039468	
O		4.06521434		6.09740401		3.89020515		 0.00034657		-0.00085393		 0.00005592	
O		7.23770955		0.29199554		1.38228813		-0.00034657		 0.00085393		-0.00005592	
O		9.61111384		3.48669588		3.88741102		 0.00002959		-0.00028627		-0.00039468	
O		1.69181006		2.90270368		1.38508115		-0.00002959		 0.00028627		 0.00039468	
O		7.23770955		2.90270368		1.38228813		-0.00034657		-0.00085393		-0.00005592	
O		4.06521434		3.48669588		3.89020515		 0.00034657		 0.00085393		 0.00005592	
