# total energy = -18387.5700924 eV	

CRYSTAL	
PRIMVEC	
		11.10980144		0.00000000		-1.33317349	
		0.00000000		6.38939717		0.00000000	
		-0.57937015		0.00000000		4.82810326	
PRIMCOORD
   28 1	
Mg		0.00000000		0.00000000		0.00000000		0.00000000		0.00000000		0.00000000	
Mg		5.26521341		0.00000000		1.74746153		0.00000000		0.00000000		0.00000000	
Mg		0.00000000		3.19469970		0.00000000		0.00000000		0.00000000		0.00000000	
Mg		5.26521341		3.19469970		1.74746153		0.00000000		0.00000000		0.00000000	
Ca		2.50933026		1.59734985		4.35015029		-0.00059294		0.00000000		 0.00045986	
Ca		8.02109880		4.79204955		-0.85522612		 0.00059294		0.00000000		-0.00045986	
Ca		2.20264161		4.79204955		2.00766450		-0.00052147		-0.00000000		-0.00029021	
Ca		8.32778521		1.59734985		1.48725856		 0.00052147		-0.00000000		 0.00029021	
Si		0.66800445		1.59734985		1.87551869		-0.00010099		0.00000000		-0.00026359	
Si		9.86242236		4.79204955		1.61940548		 0.00010099		0.00000000		 0.00026359	
Si		4.12098813		4.79204955		3.84044823		-0.00058123		0.00000000		-0.00013071	
Si		6.40943981		1.59734985		-0.34552406		 0.00058123		0.00000000		 0.00013071	
O		0.43085970		1.59734985		3.49676708		 0.00082768		0.00000000		-0.00020178	
O		10.09956712		4.79204955		-0.00184179		-0.00082768		0.00000000		 0.00020178	
O		4.54965020		4.79204955		0.62322406		-0.00030439		0.00000000		-0.00002549	
O		5.98077773		1.59734985		2.87170011		 0.00030439		0.00000000		 0.00002549	
O		4.84588562		1.59734985		0.58910278		 0.00064598		0.00000000		-0.00004276	
O		5.68454232		4.79204955		2.90582139		-0.00064598		0.00000000		 0.00004276	
O		0.13427741		4.79204955		3.53378420		-0.00029772		0.00000000		-0.00048493	
O		10.39615053		1.59734985		-0.03886003		 0.00029772		0.00000000		 0.00048493	
O		1.48068696		0.29199571		1.12283542		-0.00037300		-0.00038727		 0.00001626	
O		9.04974209		6.09740370		2.37208763		 0.00037300		 0.00038727		-0.00001626	
O		3.46784333		6.09740370		3.26366509		-0.00066061		-0.00005127		-0.00032688	
O		7.06258572		0.29199571		0.23125908		 0.00066061		 0.00005127		 0.00032688	
O		9.04974209		3.48669541		2.37208763		 0.00037300		-0.00038727		-0.00001626	
O		1.48068696		2.90270399		1.12283542		-0.00037300		 0.00038727		 0.00001626	
O		7.06258572		2.90270399		0.23125908		 0.00066061		-0.00005127		 0.00032688	
O		3.46784333		3.48669541		3.26366509		-0.00066061		 0.00005127		-0.00032688	
