# total energy = -18389.5116987 eV	

CRYSTAL	
PRIMVEC	
		11.10979641		0.00000000		0.88878148	
		0.00000000		6.38939653		0.00000000	
		0.38625131		0.00000000		4.82809685	
PRIMCOORD
   28 1	
Mg		0.00000000		0.00000000		0.00000000		0.00000000		0.00000000		0.00000000	
Mg		5.74802386		0.00000000		2.85844140		0.00000000		0.00000000		0.00000000	
Mg		0.00000000		3.19469938		0.00000000		0.00000000		0.00000000		0.00000000	
Mg		5.74802386		3.19469938		2.85844140		0.00000000		0.00000000		0.00000000	
Ca		3.45317436		1.59735025		4.96527759		-0.00002395		0.00000000		 0.00036986	
Ca		8.04287225		4.79204963		0.75160743		 0.00002395		0.00000000		-0.00036986	
Ca		2.66367738		4.79204963		2.50351839		-0.00054932		0.00000000		 0.00035502	
Ca		8.83237034		1.59735025		3.21336663		 0.00054932		0.00000000		-0.00035502	
Si		1.06485596		1.59735025		2.05674144		-0.00012402		0.00000000		 0.00059337	
Si		10.43119289		4.79204963		3.66014136		 0.00012402		0.00000000		-0.00059337	
Si		5.00064830		4.79204963		4.77020485		 0.00007599		0.00000000		 0.00016478	
Si		6.49539831		1.59735025		0.94667906		-0.00007599		0.00000000		-0.00016478	
O		1.15092326		1.59735025		3.66934625		-0.00058442		0.00000000		 0.00042024	
O		10.34512447		4.79204963		2.04753766		 0.00058442		0.00000000		-0.00042024	
O		4.78690273		4.79204963		1.56162401		-0.00012614		0.00000000		 0.00028416	
O		6.70914499		1.59735025		4.15525990		 0.00012614		0.00000000		-0.00028416	
O		5.08342886		1.59735025		1.58678562		 0.00073948		0.00000000		-0.00020984	
O		6.41261998		4.79204963		4.13009829		-0.00073948		0.00000000		 0.00020984	
O		0.85463007		4.79204963		3.64708130		-0.00068300		0.00000000		-0.00000071	
O		10.64141877		1.59735025		2.06980150		 0.00068300		0.00000000		 0.00000071	
O		1.74458961		0.29199556		1.45064140		 0.00036423		 0.00049593		-0.00003016	
O		9.75145811		6.09740320		4.26624140		-0.00036423		-0.00049593		 0.00003016	
O		4.21455733		6.09740320		4.04683960		 0.00041075		 0.00073508		 0.00027729	
O		7.28149151		0.29199556		1.67004543		-0.00041075		-0.00073508		-0.00027729	
O		9.75145811		3.48669606		4.26624140		-0.00036423		 0.00049593		 0.00003016	
O		1.74458961		2.90270382		1.45064140		 0.00036423		-0.00049593		-0.00003016	
O		7.28149151		2.90270382		1.67004543		-0.00041075		 0.00073508		-0.00027729	
O		4.21455733		3.48669606		4.04683960		 0.00041075		-0.00073508		 0.00027729	
