# total energy = -12350.7498653 eV	

CRYSTAL	
PRIMVEC	
		4.66714499		0.00000000		0.00000000	
		0.00000000		4.66480208		0.00000000	
		0.00000000		0.00000000		6.45440016	
PRIMCOORD
   20 1	
O		0.49891780		2.21811200		1.61360004		 0.00048903		 0.00011358		0.00000000	
O		4.16822719		2.44668822		4.84080012		-0.00048903		-0.00011358		0.00000000	
O		2.83248983		0.11428811		4.84080012		 0.00048903		-0.00011358		0.00000000	
O		1.83465516		4.55051304		1.61360004		-0.00048903		 0.00011358		0.00000000	
O		0.87882294		0.90450483		3.62801776		 0.00009527		-0.00017305		-0.00000802	
O		3.78832206		3.76029492		2.82638194		-0.00009527		 0.00017305		 0.00000802	
O		3.21239590		1.42789481		2.82638194		 0.00009527		 0.00017305		 0.00000802	
O		1.45474909		3.23690494		3.62801776		-0.00009527		-0.00017305		-0.00000802	
O		3.78832206		3.76029492		0.40081815		-0.00009527		 0.00017305		-0.00000802	
O		0.87882294		0.90450483		6.05358202		 0.00009527		-0.00017305		 0.00000802	
O		1.45474909		3.23690494		6.05358202		-0.00009527		-0.00017305		 0.00000802	
O		3.21239590		1.42789481		0.40081815		 0.00009527		 0.00017305		-0.00000802	
Mg		2.41851407		2.71351404		1.61360004		-0.00047459		-0.00008390		0.00000000	
Mg		2.24863092		1.95128618		4.84080012		 0.00047459		 0.00008390		0.00000000	
Mg		0.08494204		4.28368583		4.84080012		-0.00047459		 0.00008390		-0.00000000	
Mg		4.58220295		0.38111393		1.61360004		 0.00047459		-0.00008390		-0.00000000	
Si		2.33357296		0.00000000		3.22720008		0.00000000		0.00000000		0.00000000	
Si		0.00000000		2.33240011		3.22720008		0.00000000		0.00000000		0.00000000	
Si		2.33357296		0.00000000		0.00000000		0.00000000		0.00000000		0.00000000	
Si		0.00000000		2.33240011		0.00000000		0.00000000		0.00000000		0.00000000	
