# total energy = -20638.3727962 eV

CRYSTAL
PRIMVEC
		4.74599998		0.18983981		0.00000000
		0.40719993		10.17999827		0.00000000
		0.00000000		0.00000000		5.97599741
PRIMECORD
   28 1
Si		2.06050670		1.03679287		1.49400006		-0.00004708		 0.00015975		-0.00000000
Si		3.09269274		9.33304663		4.48199972		 0.00004708		-0.00015975		-0.00000000
Si		4.56063400		4.30990894		4.48199972		-0.00034292		 0.00051924		0.00000000
Si		0.59256591		6.05993151		1.49400006		 0.00034292		-0.00051924		0.00000000
Mg		0.00000000		0.00000000		0.00000000		0.00000000		0.00000000		0.00000000
Mg		2.57659995		5.18491999		0.00000000		0.00000000		0.00000000		0.00000000
Mg		0.00000000		0.00000000		2.98799965		0.00000000		0.00000000		0.00000000
Mg		2.57659995		5.18491999		2.98799965		0.00000000		0.00000000		0.00000000
Mg		4.81805959		3.01010377		1.49400006		 0.00025231		 0.00081514		0.00000000
Mg		0.33513984		7.35973668		4.48199972		-0.00025231		-0.00081514		0.00000000
Mg		2.42290798		2.36139101		4.48199972		-0.00081318		 0.00036483		0.00000000
Mg		2.73029097		8.00844849		1.49400006		 0.00081318		-0.00036483		-0.00000000
O		3.67333191		1.08097783		1.49400006		-0.00000064		-0.00034431		0.00000000
O		1.47986800		9.28886167		4.48199972		 0.00000064		 0.00034431		0.00000000
O		1.42908889		4.20497457		4.48199972		-0.00012863		-0.00013720		0.00000000
O		3.72411102		6.16486588		1.49400006		 0.00012863		 0.00013720		0.00000000
O		1.22704686		4.59124500		1.49400006		-0.00014163		-0.00048423		0.00000000
O		3.92615305		5.77859450		4.48199972		 0.00014163		 0.00048423		0.00000000
O		3.43969091		0.67728088		4.48199972		 0.00034510		-0.00018903		0.00000000
O		1.71350804		9.69255957		1.49400006		-0.00034510		 0.00018903		0.00000000
O		1.38425605		1.71002312		0.19900121		 0.00020841		-0.00009681		-0.00026086
O		3.76894291		8.65981781		5.77699857		-0.00020841		 0.00009681		 0.00026086
O		3.82827165		3.58033472		5.77699857		-0.00022418		 0.00020565		-0.00037792
O		1.32492778		6.78950573		0.19900121		 0.00022418		-0.00020565		 0.00037792
O		3.76894291		8.65981781		3.18700087		-0.00020841		 0.00009681		-0.00026086
O		1.38425605		1.71002312		2.78899891		 0.00020841		-0.00009681		 0.00026086
O		1.32492778		6.78950573		2.78899891		 0.00022418		-0.00020565		-0.00037792
O		3.82827165		3.58033472		3.18700087		-0.00022418		 0.00020565		 0.00037792
