# total energy = -9214.51825888 eV

CRYSTAL
PRIMVEC
		4.92654977		0.00000000		0.00000000
		-2.46327489		4.61245266		0.00000000
		0.00000000		0.00000000		7.28799780
PRIMECORD
   18 1
Mg		1.63462872		0.00000000		3.31603996		-0.00052292		0.00000000		-0.00016563
Mg		-0.81731510		1.53041101		3.31603996		 0.00053401		-0.00065789		-0.00018125
Mg		1.64595979		3.08203968		3.31603996		 0.00053401		 0.00065789		-0.00018125
Si		0.00000000		3.07496762		0.53931187		-0.00018783		 0.00005794		 0.00001745
Si		2.46327489		1.53748406		0.53931187		-0.00018783		-0.00005794		 0.00001745
H		2.87217901		0.00000000		5.33481591		-0.00004734		-0.00000000		-0.00007308
H		-1.43608877		2.68905866		5.33481591		 0.00022543		 0.00019729		-0.00034864
H		1.02718612		1.92339203		5.33481591		 0.00022543		-0.00019729		-0.00034864
H		0.00000000		0.00000000		1.43573602		-0.00024072		0.00000000		 0.00021934
O		0.00000000		3.07496762		2.12153688		-0.00008229		 0.00000384		 0.00008595
O		2.46327489		1.53748406		2.12153688		-0.00008229		-0.00000384		 0.00008595
O		2.49776073		0.00000000		7.22969553		-0.00022867		-0.00000000		 0.00004742
O		-1.24888086		2.33851297		7.22969553		-0.00012849		-0.00006867		 0.00003956
O		1.21439501		2.27393773		7.22969553		-0.00012849		 0.00006867		 0.00003956
O		3.27122905		0.00000000		4.28534405		 0.00036045		0.00000000		 0.00027471
O		-1.63561502		3.06266800		4.28534405		 0.00011009		-0.00001688		 0.00023805
O		0.82765987		1.54978417		4.28534405		 0.00011009		 0.00001688		 0.00023805
O		0.00000000		0.00000000		2.21555171		-0.00026264		-0.00000000		-0.00000501
