# total energy = -9215.0213842 eV

CRYSTAL
PRIMVEC
		5.59229967		0.00000000		0.00000000
		-2.79614983		4.61245048		0.00000000
		0.00000000		0.00000000		7.28799678
PRIMECORD
   18 1
Mg		1.85552503		0.00000000		3.31603965		 0.00044357		-0.00000000		-0.00056425
Mg		-0.92776307		1.53041110		3.31603965		-0.00015379		 0.00060564		 0.00001673
Mg		1.86838788		3.08203994		3.31603965		-0.00015379		-0.00060564		 0.00001673
Si		0.00000000		3.07496792		0.53931187		 0.00002219		 0.00000842		 0.00022033
Si		2.79614983		1.53748368		0.53931187		 0.00002219		-0.00000842		 0.00022033
H		3.26031071		0.00000000		5.33481565		 0.00002798		-0.00000000		-0.00018115
H		-1.63015591		2.68905897		5.33481565		 0.00012408		 0.00005354		-0.00035449
H		1.16599504		1.92339206		5.33481565		 0.00012408		-0.00005354		-0.00035449
H		0.00000000		0.00000000		1.43573570		-0.00006701		-0.00000000		 0.00011677
O		0.00000000		3.07496792		2.12153674		-0.00014855		 0.00021904		 0.00026996
O		2.79614983		1.53748368		2.12153674		-0.00014855		-0.00021904		 0.00026996
O		2.83529593		0.00000000		7.22969537		 0.00042556		0.00000000		 0.00058615
O		-1.41764797		2.33851294		7.22969537		-0.00019759		 0.00037900		 0.00056617
O		1.37850187		2.27393810		7.22969537		-0.00019759		-0.00037900		 0.00056617
O		3.71328698		0.00000000		4.28534401		-0.00074805		-0.00000000		 0.00011802
O		-1.85664405		3.06266765		4.28534401		 0.00030163		-0.00075258		-0.00054493
O		0.93950690		1.54978394		4.28534401		 0.00030163		 0.00075258		-0.00054493
O		0.00000000		0.00000000		2.21555169		 0.00002203		0.00000000		-0.00042307
