# total energy = -9214.28426553 eV

CRYSTAL
PRIMVEC
		5.85859963		0.00000000		0.00000000
		-2.92929981		4.61245205		0.00000000
		0.00000000		0.00000000		7.28799834
PRIMECORD
   18 1
Mg		1.94388394		0.00000000		3.31604004		 0.00001152		-0.00000000		-0.00016103
Mg		-0.97194168		1.53041093		3.31604004		 0.00000730		-0.00058592		 0.00012911
Mg		1.95735814		3.08203995		3.31604004		 0.00000730		 0.00058592		 0.00012911
Si		0.00000000		3.07496804		0.53931222		-0.00028737		-0.00006339		-0.00009459
Si		2.92929981		1.53748402		0.53931222		-0.00028737		 0.00006339		-0.00009459
H		3.41556358		0.00000000		5.33481563		 0.00025252		0.00000000		-0.00056602
H		-1.70778179		2.68905856		5.33481563		 0.00021508		-0.00012281		-0.00029832
H		1.22151802		1.92339173		5.33481563		 0.00021508		 0.00012281		-0.00029832
H		0.00000000		0.00000000		1.43573596		-0.00011425		0.00000000		 0.00033361
O		0.00000000		3.07496804		2.12153660		-0.00024280		-0.00015348		-0.00014163
O		2.92929981		1.53748402		2.12153660		-0.00024280		 0.00015348		-0.00014163
O		2.97031001		0.00000000		7.22969532		-0.00010384		0.00000000		-0.00007157
O		-1.48515501		2.33851277		7.22969532		-0.00021232		-0.00007343		 0.00028464
O		1.44414481		2.27393811		7.22969532		-0.00021232		 0.00007343		 0.00028464
O		3.89010957		0.00000000		4.28534359		 0.00080202		-0.00000000		-0.00000906
O		-1.94505508		3.06266791		4.28534359		 0.00000963		 0.00050985		 0.00003794
O		0.98424474		1.54978415		4.28534359		 0.00000963		-0.00050985		 0.00003794
O		0.00000000		0.00000000		2.21555189		 0.00017299		-0.00000000		 0.00063980
