# total energy = -12341.5041706 eV	

CRYSTAL	
PRIMVEC	
		4.44490067		0.00000000		0.53338701	
		0.00000000		4.66480054		0.00000000	
		0.77452924		0.00000000		6.45440136	
PRIMCOORD
   20 1	
O		0.66879196		2.21811188		1.67061896		-0.00071901		 0.00033968		 0.00004252	
O		4.55063616		2.44668777		5.31716896		 0.00071901		-0.00033968		-0.00004252	
O		3.27850602		0.11428794		5.16451314		-0.00071901		-0.00033968		 0.00004252	
O		1.94092210		4.55051305		1.82327477		 0.00071901		 0.00033968		-0.00004252	
O		1.27233696		0.90450519		3.72845509		 0.00029215		-0.00024591		 0.00061965	
O		3.94709116		3.76029490		3.25933283		-0.00029215		 0.00024591		-0.00061965	
O		3.39859096		1.42789508		3.19351284		-0.00002179		 0.00009077		 0.00065743	
O		1.82083716		3.23690501		3.79427507		 0.00002179		-0.00009077		-0.00065743	
O		3.65602288		3.76029490		0.83376879		 0.00002179		 0.00009077		-0.00065743	
O		1.56340390		0.90450519		6.15401912		-0.00002179		-0.00009077		 0.00065743	
O		2.11190499		3.23690501		6.21983911		-0.00029215		-0.00024591		-0.00061965	
O		3.10752313		1.42789508		0.76794881		 0.00029215		 0.00024591		 0.00061965	
Mg		2.49697912		2.71351378		1.89000176		 0.00009522		-0.00023998		 0.00018006	
Mg		2.72244900		1.95128586		5.09778616		-0.00009522		 0.00023998		-0.00018006	
Mg		0.66179295		4.28368613		4.85050804		 0.00009522		 0.00023998		 0.00018006	
Mg		4.55763517		0.38111396		2.13727988		-0.00009522		-0.00023998		-0.00018006	
Si		2.60971406		0.00000000		3.49389418		0.00000000		0.00000000		0.00000000	
Si		0.38726417		2.33239982		3.22719978		0.00000000		0.00000000		0.00000000	
Si		2.22244989		0.00000000		0.26669395		0.00000000		-0.00000000		0.00000000	
Si		0.00000000		2.33239982		0.00000000		0.00000000		0.00000000		0.00000000	
