# total energy = -12345.3620617 eV	

CRYSTAL	
PRIMVEC	
		4.44489886		0.00000000		-0.35559102	
		0.00000000		4.66479943		0.00000000	
		-0.51635053		0.00000000		6.45440168	
PRIMCOORD
   20 1	
O		0.34607217		2.21811206		1.57558725		 0.00005312		 0.00027402		 0.00058257	
O		3.58247615		2.44668826		4.52322118		-0.00005312		-0.00027402		-0.00058257	
O		2.31034589		0.11428810		4.62499125		 0.00005312		-0.00027402		 0.00058257	
O		1.61820199		4.55051311		1.47381719		-0.00005312		 0.00027402		-0.00058257	
O		0.54673306		0.90450502		3.56105998		 0.00020508		-0.00044821		-0.00049867	
O		3.38181527		3.76029529		2.53774801		-0.00020508		 0.00044821		 0.00049867	
O		2.83331417		1.42789514		2.58162824		 0.00006230		-0.00018679		-0.00015578	
O		1.09523415		3.23690518		3.51718020		-0.00006230		 0.00018679		 0.00015578	
O		3.57586018		3.76029529		0.11218385		-0.00006230		-0.00018679		 0.00015578	
O		0.35268814		0.90450502		5.98662414		 0.00006230		 0.00018679		-0.00015578	
O		0.90118924		3.23690518		5.94274391		-0.00020508		-0.00044821		 0.00049867	
O		3.02735909		1.42789514		0.15606408		 0.00020508		 0.00044821		-0.00049867	
Mg		2.17425903		2.71351418		1.42933186		 0.00028439		-0.00007119		 0.00016301	
Mg		1.75428885		1.95128614		4.66947613		-0.00028439		 0.00007119		-0.00016301	
Mg		-0.30636700		4.28368630		4.83432821		 0.00028439		 0.00007119		 0.00016301	
Mg		4.23491488		0.38111402		1.26448023		-0.00028439		-0.00007119		-0.00016301	
Si		1.96427416		0.00000000		3.04940399		0.00000000		0.00000000		0.00000000	
Si		-0.25817616		2.33240016		3.22719995		0.00000000		0.00000000		0.00000000	
Si		2.22244987		0.00000000		-0.17779595		0.00000000		0.00000000		0.00000000	
Si		0.00000000		2.33240016		0.00000000		0.00000000		0.00000000		0.00000000	
