# total energy = -4022.28434206 eV

CRYSTAL
PRIMVEC
		4.24106580		0.00000000		0.00000000
		0.00000000		3.94517936		0.00000000
		0.00000000		0.00000000		3.94517936
PRIMECORD
   5 1
Ca		0.00000000		0.00000000		0.00000000		0.00000000		0.00000000		0.00000000
Mg		2.12053290		1.97258883		1.97258883		0.00000000		0.00000000		0.00000000
O		2.12053290		1.97258883		0.00000000		0.00000000		0.00000000		0.00000000
O		2.12053290		0.00000000		1.97258883		0.00000000		0.00000000		0.00000000
O		0.00000000		1.97258883		1.97258883		0.00000000		0.00000000		0.00000000
