# total energy = -4022.07923934 eV

CRYSTAL
PRIMVEC
		3.55065995		0.00000000		0.00000000
		0.00000000		3.94517732		0.00000000
		0.00000000		0.00000000		3.94517732
PRIMECORD
   5 1
Ca		0.00000000		0.00000000		0.00000000		0.00000000		0.00000000		0.00000000
Mg		1.77532997		1.97258902		1.97258902		0.00000000		0.00000000		0.00000000
O		1.77532997		1.97258902		0.00000000		0.00000000		0.00000000		0.00000000
O		1.77532997		0.00000000		1.97258902		0.00000000		0.00000000		0.00000000
O		0.00000000		1.97258902		1.97258902		0.00000000		0.00000000		0.00000000
