# total energy = -4022.38883822 eV

CRYSTAL
PRIMVEC
		4.14243669		0.00000000		0.00000000
		0.00000000		3.94517800		0.00000000
		0.00000000		0.00000000		3.94517800
PRIMECORD
   5 1
Ca		0.00000000		0.00000000		0.00000000		0.00000000		0.00000000		0.00000000
Mg		2.07121793		1.97258900		1.97258900		0.00000000		0.00000000		0.00000000
O		2.07121793		1.97258900		0.00000000		0.00000000		0.00000000		0.00000000
O		2.07121793		0.00000000		1.97258900		0.00000000		0.00000000		0.00000000
O		0.00000000		1.97258900		1.97258900		0.00000000		0.00000000		0.00000000
