# total energy = -21530.3439734 eV

CRYSTAL
PRIMVEC
		5.18480183		0.82957060		0.00000000
		1.42767782		8.92300215		0.00000000
		-0.16205902		-0.13376800		9.18819633
PRIMECORD
   42 1
Mg		0.00000000		0.00000000		0.00000000		0.00000000		0.00000000		0.00000000
Mg		3.30623983		4.87628375		0.00000000		0.00000000		0.00000000		0.00000000
Mg		2.83023713		1.90126675		0.00000000		 0.00027566		 0.00081460		 0.00020098
Mg		3.78224305		7.85130180		0.00000000		-0.00027566		-0.00081460		-0.00020098
Mg		0.95167723		5.94798305		0.00000000		 0.00027784		 0.00081317		 0.00020220
Mg		0.47600322		2.97501700		0.00000000		-0.00027784		-0.00081317		-0.00020220
Si		4.51343305		2.14128413		2.67376595		-0.00035018		-0.00037952		 0.00027199
Si		1.93698915		7.47751695		6.51443300		 0.00035018		 0.00037952		-0.00027199
Si		2.63487315		6.18799990		2.67376595		-0.00034825		-0.00037137		 0.00026599
Si		3.81554906		3.43080117		6.51443300		 0.00034825		 0.00037137		-0.00026599
Si		2.15851393		3.21075186		2.67376595		-0.00023178		-0.00019751		 0.00030966
Si		4.29190881		6.40804974		6.51443300		 0.00023178		 0.00019751		-0.00030966
Si		5.46475375		8.08703561		2.67376595		-0.00022879		-0.00020579		 0.00032616
Si		0.98566898		1.53176599		6.51443300		 0.00022879		 0.00020579		-0.00032616
O		2.18610292		3.23264800		1.08053211		 0.00006127		-0.00049678		 0.00012344
O		4.26431876		6.38615413		8.10766685		-0.00006127		 0.00049678		-0.00012344
O		5.49234380		8.10893175		1.08053211		 0.00006067		-0.00049193		 0.00010520
O		0.95807893		1.50986880		8.10766685		-0.00006067		 0.00049193		-0.00010520
O		4.54143686		2.16576783		1.08053211		-0.00030865		 0.00034010		 0.00004139
O		1.90898483		7.45303272		8.10766685		 0.00030865		-0.00034010		-0.00004139
O		2.66287695		6.21248413		1.08053211		-0.00031020		 0.00034052		 0.00004482
O		3.78754473		3.40631800		8.10766685		 0.00031020		-0.00034052		-0.00004482
O		1.70813487		0.26115898		1.03459123		-0.00023121		-0.00016708		-0.00024305
O		3.31460689		0.43464205		8.15360772		 0.00023121		 0.00016708		 0.00024305
O		5.01437469		5.13744273		1.03459123		-0.00021885		-0.00022920		-0.00008111
O		1.43604699		4.48135782		8.15360772		 0.00021885		 0.00022920		 0.00008111
O		2.48040303		4.70661167		3.19841208		 0.00067267		-0.00028213		-0.00009584
O		3.97001918		4.91218888		5.98978687		-0.00067267		 0.00028213		 0.00009584
O		4.35896293		0.65989590		3.19841208		 0.00067076		-0.00027551		-0.00009711
O		0.66377883		0.03590513		5.98978687		-0.00067076		 0.00027551		 0.00009711
O		3.26804905		2.58056783		3.20576313		-0.00006845		-0.00021965		-0.00079879
O		3.18237368		7.03823377		5.98243687		 0.00006845		 0.00021965		 0.00079879
O		1.38948915		6.62728361		3.20576313		-0.00007692		-0.00021433		-0.00080065
O		5.06093411		2.99151694		5.98243687		 0.00007692		 0.00021433		 0.00080065
O		0.70132376		2.32656773		3.20576313		 0.00000194		-0.00069808		 0.00013927
O		5.74909897		7.29223388		5.98243687		-0.00000194		 0.00069808		-0.00013927
O		4.00756411		7.20285200		3.20576313		 0.00000409		-0.00069943		 0.00013968
O		2.44285915		2.41594907		5.98243687		-0.00000409		 0.00069943		-0.00013968
H		1.69592898		0.26275993		1.86520411		 0.00028254		 0.00046436		 0.00064922
H		4.75449375		9.35604062		7.32299485		-0.00028254		-0.00046436		-0.00064922
H		5.00216881		5.13904368		1.86520411		 0.00027188		 0.00052170		 0.00050354
H		1.44825392		4.47975687		7.32299485		-0.00027188		-0.00052170		-0.00050354
