# total energy = -18515.9775622 eV	

CRYSTAL	
PRIMVEC	
		7.20164977		0.00000000		0.00000000	
		0.00000000		6.22800113		0.00000000	
		-0.44526360		0.00000000		4.23980567	
PRIMCOORD
   30 1	
Mg		0.17094268		1.55700028		2.28101526		 0.00030536		0.00000000		 0.00023623	
Mg		6.58544493		4.67100013		1.95878969		-0.00030536		0.00000000		-0.00023623	
Mg		4.84889888		1.55700028		3.88789993		-0.00029375		0.00000000		 0.00073806	
Mg		1.90748873		4.67100013		0.35190430		 0.00029375		0.00000000		-0.00073806	
Mg		2.87636197		1.55700028		0.17807231		-0.00034406		0.00000000		-0.00082286	
Mg		3.88002565		4.67100013		4.06173191		 0.00034406		0.00000000		 0.00082286	
Si		0.00000000		0.00000000		0.00000000		0.00000000		0.00000000		0.00000000	
Si		0.00000000		3.11399984		0.00000000		0.00000000		0.00000000		0.00000000	
Si		2.12942413		3.12645582		2.35309081		-0.00017436		-0.00017833		-0.00042546	
Si		4.62696420		3.10154387		1.88671269		 0.00017436		 0.00017833		 0.00042546	
Si		4.62696420		0.01245597		1.88671269		 0.00017436		-0.00017833		 0.00042546	
Si		2.12942413		6.21554371		2.35309081		-0.00017436		 0.00017833		-0.00042546	
O		5.64136986		3.48767977		0.59357294		-0.00002999		-0.00058206		 0.00020739	
O		1.11501775		2.74031992		3.64623201		 0.00002999		 0.00058206		-0.00020739	
O		1.11501775		0.37367992		3.64623201		 0.00002999		-0.00058206		-0.00020739	
O		5.64136986		5.85431976		0.59357294		-0.00002999		 0.00058206		 0.00020739	
O		6.00979690		2.74654791		2.77707210		-0.00005165		 0.00017759		 0.00011729	
O		0.74659071		3.48145178		1.46273285		 0.00005165		-0.00017759		-0.00011729	
O		0.74659071		5.86054775		1.46273285		 0.00005165		 0.00017759		-0.00011729	
O		6.00979690		0.36745194		2.77707210		-0.00005165		-0.00017759		 0.00011729	
O		2.01268683		1.55700028		1.81887603		-0.00013839		0.00000000		-0.00026588	
O		4.74370078		4.67100013		2.42092819		 0.00013839		0.00000000		 0.00026588	
O		3.19015657		3.45653983		1.03027162		 0.00022170		-0.00039052		-0.00009089	
O		3.56623104		2.77145985		3.20953189		-0.00022170		 0.00039052		 0.00009089	
O		3.56623104		0.34253999		3.20953189		-0.00022170		-0.00039052		 0.00009089	
O		3.19015657		5.88545970		1.03027162		 0.00022170		 0.00039052		-0.00009089	
O		4.49849613		1.55700028		1.32705881		 0.00014996		0.00000000		 0.00076253	
O		2.25789220		4.67100013		2.91274614		-0.00014996		0.00000000		-0.00076253	
O		6.99156253		1.55700028		0.49181723		 0.00007930		0.00000000		-0.00030934	
O		-0.23517491		4.67100013		3.74798700		-0.00007930		0.00000000		 0.00030934	
