# total energy = -18509.1713058 eV	

CRYSTAL	
PRIMVEC	
		6.85034967		0.00000000		0.00000000	
		0.00000000		6.22800225		0.00000000	
		-0.42354342		0.00000000		4.23980472	
PRIMCOORD
   30 1	
Mg		0.16260401		1.55700022		2.28101505		-0.00008419		0.00000000		-0.00009900	
Mg		6.26420361		4.67099998		1.95878967		 0.00008419		0.00000000		 0.00009900	
Mg		4.61236783		1.55700022		3.88789951		-0.00006486		0.00000000		 0.00030812	
Mg		1.81443979		4.67099998		0.35190383		 0.00006486		0.00000000		-0.00030812	
Mg		2.73605158		1.55700022		0.17807210		 0.00003565		0.00000000		-0.00071914	
Mg		3.69075604		4.67099998		4.06173193		-0.00003565		0.00000000		 0.00071914	
Si		0.00000000		0.00000000		0.00000000		0.00000000		0.00000000		-0.00000000	
Si		0.00000000		3.11399976		0.00000000		-0.00000000		0.00000000		-0.00000000	
Si		2.02554975		3.12645575		2.35309100		 0.00010899		-0.00029227		-0.00002828	
Si		4.40125787		3.10154377		1.88671303		-0.00010899		 0.00029227		 0.00002828	
Si		4.40125787		0.01245599		1.88671303		-0.00010899		-0.00029227		 0.00002828	
Si		2.02554975		6.21554352		2.35309100		 0.00010899		 0.00029227		-0.00002828	
O		5.36618100		3.48768017		0.59357321		-0.00030675		-0.00004643		 0.00011206	
O		1.06062662		2.74032003		3.64623151		 0.00030675		 0.00004643		-0.00011206	
O		1.06062662		0.37367972		3.64623151		 0.00030675		-0.00004643		-0.00011206	
O		5.36618100		5.85431979		0.59357321		-0.00030675		 0.00004643		 0.00011206	
O		5.71663598		2.74654768		2.77707216		 0.00010036		-0.00002955		 0.00004353	
O		0.71017164		3.48145183		1.46273324		-0.00010036		 0.00002955		-0.00004353	
O		0.71017164		5.86054744		1.46273324		-0.00010036		-0.00002955		-0.00004353	
O		5.71663598		0.36745207		2.77707216		 0.00010036		 0.00002955		 0.00004353	
O		1.91450764		1.55700022		1.81887607		-0.00009832		-0.00000000		-0.00045252	
O		4.51230067		4.67099998		2.42092796		 0.00009832		-0.00000000		 0.00045252	
O		3.03453981		3.45653985		1.03027204		 0.00027171		-0.00025539		 0.00015370	
O		3.39226781		2.77145967		3.20953199		-0.00027171		 0.00025539		-0.00015370	
O		3.39226781		0.34254009		3.20953199		-0.00027171		-0.00025539		-0.00015370	
O		3.03453981		5.88545942		1.03027204		 0.00027171		 0.00025539		 0.00015370	
O		4.27905654		1.55700022		1.32705864		-0.00053447		0.00000000		 0.00036020	
O		2.14775108		4.67099998		2.91274607		 0.00053447		0.00000000		-0.00036020	
O		6.65051058		1.55700022		0.49181674		-0.00013807		0.00000000		-0.00004945	
O		-0.22370296		4.67099998		3.74798660		 0.00013807		0.00000000		 0.00004945	
