# total energy = -9137.31808673 eV

CRYSTAL
PRIMVEC
		5.33299967		0.00000000		0.00000000
		-2.66649983		4.61851637		0.00000000
		0.00000000		0.00000000		7.87329940
PRIMECORD
   14 1
Mg		1.77428899		0.00000000		3.59022497		 0.00020037		0.00000000		 0.00016980
Mg		-0.88714503		1.53658013		3.59022497		-0.00010018		 0.00017352		 0.00016980
Mg		1.77935481		3.08193357		3.59022497		-0.00010018		-0.00017352		 0.00016980
Si		0.00000000		3.07900896		0.60624420		0.00000000		0.00000000		-0.00014293
Si		2.66649983		1.53950475		0.60624420		0.00000000		0.00000000		-0.00014293
O		0.00000000		3.07900896		2.29742906		-0.00000000		-0.00000000		-0.00027104
O		2.66649983		1.53950475		2.29742906		-0.00000000		-0.00000000		-0.00027104
O		2.67183283		0.00000000		7.81818658		-0.00018943		0.00000000		 0.00027237
O		-1.33591695		2.31387496		7.81818658		 0.00009471		-0.00016405		 0.00027237
O		1.33058395		2.30463767		7.81818658		 0.00009471		 0.00016405		 0.00027237
O		3.53044578		0.00000000		4.66099371		-0.00017364		0.00000000		-0.00015333
O		-1.76522289		3.05745564		4.66099371		 0.00008682		-0.00015037		-0.00015333
O		0.90127694		1.56105806		4.66099371		 0.00008682		 0.00015037		-0.00015333
O		0.00000000		0.00000000		2.38560967		-0.00000000		-0.00000000		-0.00003856
