# total energy = -9137.50452597 eV

CRYSTAL
PRIMVEC
		5.33299967		0.00000000		0.00000000
		-2.66649983		4.61851637		0.00000000
		0.00000000		0.00000000		7.14089722
PRIMECORD
   14 1
Mg		1.77428899		0.00000000		3.25624960		-0.00001801		0.00000000		-0.00006694
Mg		-0.88714503		1.53658013		3.25624960		 0.00000900		-0.00001560		-0.00006694
Mg		1.77935481		3.08193357		3.25624960		 0.00000900		 0.00001560		-0.00006694
Si		0.00000000		3.07900896		0.54984880		0.00000000		0.00000000		 0.00036348
Si		2.66649983		1.53950475		0.54984880		0.00000000		0.00000000		 0.00036348
O		0.00000000		3.07900896		2.08371496		-0.00000000		0.00000000		 0.00012493
O		2.66649983		1.53950475		2.08371496		0.00000000		0.00000000		 0.00012493
O		2.67183283		0.00000000		7.09091261		-0.00017334		-0.00000000		 0.00047106
O		-1.33591695		2.31387496		7.09091261		 0.00008667		-0.00015012		 0.00047106
O		1.33058395		2.30463767		7.09091261		 0.00008667		 0.00015012		 0.00047106
O		3.53044578		0.00000000		4.22741284		-0.00000244		0.00000000		-0.00094425
O		-1.76522289		3.05745564		4.22741284		 0.00000122		-0.00000211		-0.00094425
O		0.90127694		1.56105806		4.22741284		 0.00000122		 0.00000211		-0.00094425
O		0.00000000		0.00000000		2.16369289		0.00000000		0.00000000		 0.00064358
