# total energy = -9137.62823637 eV

CRYSTAL
PRIMVEC
		5.33299967		0.00000000		0.00000000
		-2.66649983		4.61851637		0.00000000
		0.00000000		0.00000000		6.77470146
PRIMECORD
   14 1
Mg		1.77428899		0.00000000		3.08926272		 0.00019749		0.00000000		 0.00069578
Mg		-0.88714503		1.53658013		3.08926272		-0.00009874		 0.00017103		 0.00069578
Mg		1.77935481		3.08193357		3.08926272		-0.00009874		-0.00017103		 0.00069578
Si		0.00000000		3.07900896		0.52165216		-0.00000000		0.00000000		 0.00015321
Si		2.66649983		1.53950475		0.52165216		0.00000000		-0.00000000		 0.00015321
O		0.00000000		3.07900896		1.97685712		0.00000000		-0.00000000		-0.00045587
O		2.66649983		1.53950475		1.97685712		0.00000000		0.00000000		-0.00045587
O		2.67183283		0.00000000		6.72727670		-0.00029716		0.00000000		 0.00026770
O		-1.33591695		2.31387496		6.72727670		 0.00014858		-0.00025734		 0.00026770
O		1.33058395		2.30463767		6.72727670		 0.00014858		 0.00025734		 0.00026770
O		3.53044578		0.00000000		4.01062160		-0.00039272		0.00000000		-0.00073954
O		-1.76522289		3.05745564		4.01062160		 0.00019636		-0.00034011		-0.00073954
O		0.90127694		1.56105806		4.01062160		 0.00019636		 0.00034011		-0.00073954
O		0.00000000		0.00000000		2.05273397		0.00000000		0.00000000		-0.00006652
