# total energy = -12337.3549759 eV

CRYSTAL
PRIMVEC
		4.44490009		0.00000000		0.00000000
		0.00000000		4.19831926		0.00000000
		0.00000000		0.00000000		6.45439942
PRIMECORD
   20 1
O		0.47515982		1.99630109		1.61360008		 0.00005912		 0.00021084		0.00000000
O		3.96974027		2.20201906		4.84080023		-0.00005912		-0.00021084		0.00000000
O		2.69760987		0.10285899		4.84080023		 0.00005912		-0.00021084		0.00000000
O		1.74729023		4.09546116		1.61360008		-0.00005912		 0.00021084		0.00000000
O		0.83697513		0.81405412		3.62801813		 0.00000462		-0.00001996		 0.00003725
O		3.60792496		3.38426603		2.82638218		-0.00000462		 0.00001996		-0.00003725
O		3.05942518		1.28510596		2.82638218		 0.00000462		 0.00001996		-0.00003725
O		1.38547491		2.91321419		3.62801813		-0.00000462		-0.00001996		 0.00003725
O		3.60792496		3.38426603		0.40081798		-0.00000462		 0.00001996		 0.00003725
O		0.83697513		0.81405412		6.05358233		 0.00000462		-0.00001996		-0.00003725
O		1.38547491		2.91321419		6.05358233		-0.00000462		-0.00001996		-0.00003725
O		3.05942518		1.28510596		0.40081798		 0.00000462		 0.00001996		 0.00003725
Mg		2.30334723		2.44216324		1.61360008		-0.00017039		 0.00036559		0.00000000
Mg		2.14155286		1.75615691		4.84080023		 0.00017039		-0.00036559		0.00000000
Mg		0.08089718		3.85531699		4.84080023		-0.00017039		-0.00036559		0.00000000
Mg		4.36400291		0.34300316		1.61360008		 0.00017039		 0.00036559		0.00000000
Si		2.22245005		0.00000000		3.22720015		-0.00000000		0.00000000		0.00000000
Si		0.00000000		2.09916007		3.22720015		0.00000000		0.00000000		-0.00000000
Si		2.22245005		0.00000000		0.00000000		0.00000000		0.00000000		0.00000000
Si		0.00000000		2.09916007		0.00000000		0.00000000		0.00000000		-0.00000000
