# total energy = -12341.0443044 eV

CRYSTAL
PRIMVEC
		4.44490009		0.00000000		0.00000000
		0.00000000		4.31494010		0.00000000
		0.00000000		0.00000000		6.45439942
PRIMECORD
   20 1
O		0.47515982		2.05175388		1.61360008		 0.00011047		 0.00047630		0.00000000
O		3.96974027		2.26318622		4.84080023		-0.00011047		-0.00047630		0.00000000
O		2.69760987		0.10571617		4.84080023		 0.00011047		-0.00047630		0.00000000
O		1.74729023		4.20922393		1.61360008		-0.00011047		 0.00047630		0.00000000
O		0.83697513		0.83666710		3.62801813		 0.00002297		-0.00013297		-0.00006800
O		3.60792496		3.47827300		2.82638218		-0.00002297		 0.00013297		 0.00006800
O		3.05942518		1.32080295		2.82638218		 0.00002297		 0.00013297		 0.00006800
O		1.38547491		2.99413715		3.62801813		-0.00002297		-0.00013297		-0.00006800
O		3.60792496		3.47827300		0.40081798		-0.00002297		 0.00013297		-0.00006800
O		0.83697513		0.83666710		6.05358233		 0.00002297		-0.00013297		 0.00006800
O		1.38547491		2.99413715		6.05358233		-0.00002297		-0.00013297		 0.00006800
O		3.05942518		1.32080295		0.40081798		 0.00002297		 0.00013297		-0.00006800
Mg		2.30334723		2.51000086		1.61360008		-0.00008215		 0.00011087		0.00000000
Mg		2.14155286		1.80493925		4.84080023		 0.00008215		-0.00011087		0.00000000
Mg		0.08089718		3.96240930		4.84080023		-0.00008215		-0.00011087		0.00000000
Mg		4.36400291		0.35253080		1.61360008		 0.00008215		 0.00011087		0.00000000
Si		2.22245005		0.00000000		3.22720015		0.00000000		0.00000000		-0.00000000
Si		0.00000000		2.15747005		3.22720015		-0.00000000		0.00000000		0.00000000
Si		2.22245005		0.00000000		0.00000000		0.00000000		0.00000000		-0.00000000
Si		0.00000000		2.15747005		0.00000000		0.00000000		0.00000000		0.00000000
