# total energy = -13384.2476357 eV	

CRYSTAL	
PRIMVEC	
		3.05300001		0.00000000		0.00000000	
		-1.52650001		2.64397739		0.00000000	
		0.00000000		0.00000000		22.13750153	
PRIMCOORD
   18 1	
O		0.00000000		0.00000000		6.89140412		0.00000000		-0.00000000		-0.00005248	
O		0.00000000		0.00000000		15.24609497		0.00000000		0.00000000		 0.00005248	
O		1.52650001		0.88132508		9.47927806		0.00000000		-0.00000000		 0.00012457	
O		0.00000000		1.76264986		12.65822195		0.00000000		-0.00000000		-0.00012457	
O		1.52650001		0.88132508		1.58947302		0.00000000		-0.00000000		 0.00006270	
O		0.00000000		1.76264986		20.54802821		-0.00000000		0.00000000		-0.00006270	
O		0.00000000		1.76264986		4.17734603		0.00000000		-0.00000000		-0.00001619	
O		1.52650001		0.88132508		17.96015306		0.00000000		0.00000000		 0.00001619	
H		1.52650001		0.88132508		10.56844314		0.00000000		0.00000000		-0.00026818	
H		0.00000000		1.76264986		11.56905717		0.00000000		-0.00000000		 0.00026818	
H		1.52650001		0.88132508		0.50030793		0.00000000		0.00000000		 0.00003852	
H		0.00000000		1.76264986		21.63719299		0.00000000		-0.00000000		-0.00003852	
Mg		0.00000000		1.76264986		8.25507390		0.00000000		-0.00000000		 0.00004012	
Mg		1.52650001		0.88132508		13.88242611		-0.00000000		0.00000000		-0.00004012	
Mg		0.00000000		0.00000000		2.81367595		0.00000000		-0.00000000		-0.00011763	
Mg		0.00000000		0.00000000		19.32382405		0.00000000		-0.00000000		 0.00011763	
Mg		1.52650001		0.88132508		5.53658804		0.00000000		-0.00000000		-0.00002963	
Mg		0.00000000		1.76264986		16.60091104		0.00000000		-0.00000000		 0.00002963	
