# total energy = -24714.8382569 eV	

CRYSTAL	
PRIMVEC	
		9.20099997		0.00000000		-0.36803963	
		0.00000000		8.62100237		0.00000000	
		-1.17087948		0.00000000		4.84860537	
PRIMCOORD
   40 1	
Si		2.50196965		0.78882197		0.91405563		-0.00032707		 0.00010288		-0.00022943	
Si		5.52815360		7.83217856		3.56651379		 0.00032707		-0.00010288		 0.00022943	
Si		6.11359150		0.78882197		1.14220926		 0.00032910		 0.00010057		 0.00023095	
Si		1.91653083		7.83217856		3.33836108		-0.00032910		-0.00010057		-0.00023095	
Si		7.10246964		5.09932224		0.73003582		-0.00018587		 0.00021221		-0.00015505	
Si		0.92765361		3.52167922		3.75053360		 0.00018587		-0.00021221		 0.00015505	
Si		1.51309151		5.09932224		1.32622908		 0.00018821		 0.00020956		 0.00015684	
Si		6.51703082		3.52167922		3.15434126		-0.00018821		-0.00020956		-0.00015684	
Mg		-0.29271895		7.80803977		1.21215318		-0.00000007		-0.00040832		 0.00000003	
Mg		-0.87815685		0.81295984		3.63645771		 0.00000007		 0.00040832		-0.00000003	
Mg		4.30778104		3.49753951		1.02813337		-0.00000011		-0.00042147		0.00000000	
Mg		3.72234314		5.12346010		3.45243789		 0.00000011		 0.00042147		-0.00000000	
Mg		-0.29271895		2.36387744		1.21215318		 0.00000004		 0.00021104		 0.00000009	
Mg		-0.87815685		6.25712217		3.63645771		-0.00000004		-0.00021104		-0.00000009	
Mg		4.30778104		6.67437771		1.02813337		 0.00000003		 0.00022842		 0.00000007	
Mg		3.72234314		1.94662190		3.45243789		-0.00000003		-0.00022842		-0.00000007	
O		0.95517003		0.78795915		0.62924021		 0.00029441		 0.00008847		-0.00025224	
O		7.07495415		7.83304046		3.85133012		-0.00029441		-0.00008847		 0.00025224	
O		7.66039205		0.78795915		1.42702468		-0.00029591		 0.00008864		 0.00025179	
O		0.36973121		7.83304046		3.05354474		 0.00029591		-0.00008864		-0.00025179	
O		5.55567001		5.09845941		0.44522040		 0.00021210		 0.00008126		-0.00027028	
O		2.47445416		3.52254112		4.03534994		-0.00021210		-0.00008126		 0.00027028	
O		3.05989206		5.09845941		1.61104449		-0.00021382		 0.00008148		 0.00026979	
O		4.97023211		3.52254112		2.86952492		 0.00021382		-0.00008148		-0.00026979	
O		3.06666757		2.04835031		1.63958488		-0.00001875		 0.00004139		-0.00004958	
O		4.96345476		6.57265114		2.84098546		 0.00001875		-0.00004139		 0.00004958	
O		5.54889358		2.04835031		0.41668002		 0.00001795		 0.00004339		 0.00004836	
O		2.48122967		6.57265114		4.06388940		-0.00001795		-0.00004339		-0.00004836	
O		7.66716756		6.35884966		1.45556506		-0.00007306		-0.00006397		-0.00010132	
O		0.36295478		2.26214995		3.02500620		 0.00007306		 0.00006397		 0.00010132	
O		0.94839268		6.35884966		0.60069983		 0.00007211		-0.00006160		 0.00010000	
O		7.08172966		2.26214995		3.87986959		-0.00007211		 0.00006160		-0.00010000	
O		2.21340459		0.52846671		4.30508759		-0.00013204		-0.00036270		 0.00007152	
O		5.81671866		8.09253290		0.17548183		 0.00013204		 0.00036270		-0.00007152	
O		5.23127984		0.52846671		2.59978727		 0.00013221		-0.00036245		-0.00007170	
O		2.79884249		8.09253290		1.88078307		-0.00013221		 0.00036245		 0.00007170	
O		6.81390458		4.83896698		4.12106778		-0.00014734		-0.00036971		 0.00006420	
O		1.21621867		3.78203263		0.35950164		 0.00014734		 0.00036971		-0.00006420	
O		0.63077985		4.83896698		2.78380709		 0.00014758		-0.00036949		-0.00006443	
O		7.39934248		3.78203263		1.69676325		-0.00014758		 0.00036949		 0.00006443	
