# total energy = -20637.8145847 eV	

CRYSTAL	
PRIMVEC	
		4.74599980		0.00000000		0.00000000	
		0.00000000		11.19800144		0.00000000	
		0.00000000		0.00000000		5.97600159	
PRIMCOORD
   28 1	
Si		2.02227004		1.05149192		1.49399992		-0.00032986		-0.00041599		0.00000000	
Si		2.72372881		10.14650762		4.48199977		 0.00032986		 0.00041599		-0.00000000	
Si		4.39527089		4.54750785		4.48199977		-0.00032986		 0.00041599		0.00000000	
Si		0.35072891		6.65049264		1.49399992		 0.00032986		-0.00041599		0.00000000	
Mg		0.00000000		0.00000000		0.00000000		0.00000000		0.00000000		-0.00000000	
Mg		2.37299990		5.59899977		0.00000000		0.00000000		0.00000000		0.00000000	
Mg		0.00000000		0.00000000		2.98799984		-0.00000000		0.00000000		0.00000000	
Mg		2.37299990		5.59899977		2.98799984		0.00000000		0.00000000		0.00000000	
Mg		4.70518373		3.10408605		1.49399992		 0.00025649		-0.00005297		0.00000000	
Mg		0.04081607		8.09391444		4.48199977		-0.00025649		 0.00005297		0.00000000	
Mg		2.33218383		2.49491372		4.48199977		 0.00025649		 0.00005297		0.00000000	
Mg		2.41381503		8.70308582		1.49399992		-0.00025649		-0.00005297		0.00000000	
O		3.63590997		1.02909602		1.49399992		-0.00021589		-0.00043311		0.00000000	
O		1.11008888		10.16890352		4.48199977		 0.00021589		 0.00043311		0.00000000	
O		1.26291102		4.56990375		4.48199977		-0.00021589		 0.00043311		-0.00000000	
O		3.48308878		6.62809579		1.49399992		 0.00021589		-0.00043311		-0.00000000	
O		1.04506916		5.00438580		1.49399992		-0.00001443		 0.00006753		0.00000000	
O		3.70093065		6.19361375		4.48199977		 0.00001443		-0.00006753		-0.00000000	
O		3.41806906		0.59461398		4.48199977		-0.00001443		-0.00006753		0.00000000	
O		1.32793074		10.60338652		1.49399992		 0.00001443		 0.00006753		-0.00000000	
O		1.31796415		1.82303392		0.19900120		 0.00047489		-0.00006793		-0.00056179	
O		3.42803566		9.37496562		5.77699897		-0.00047489		 0.00006793		 0.00056179	
O		3.69096405		3.77596585		5.77699897		 0.00047489		 0.00006793		 0.00056179	
O		1.05503576		7.42203464		0.19900120		-0.00047489		-0.00006793		-0.00056179	
O		3.42803566		9.37496562		3.18700104		-0.00047489		 0.00006793		-0.00056179	
O		1.31796415		1.82303392		2.78899865		 0.00047489		-0.00006793		 0.00056179	
O		1.05503576		7.42203464		2.78899865		-0.00047489		-0.00006793		 0.00056179	
O		3.69096405		3.77596585		3.18700104		 0.00047489		 0.00006793		-0.00056179	
