# total energy = -10069.1628958 eV

CRYSTAL
PRIMVEC
		5.07004305		0.00000000		0.00000000
		0.00000000		4.82861267		0.00000000
		0.00000000		0.00000000		4.82861267
PRIMECORD
   12 1
Mg		0.00000000		0.00000000		0.00000000		0.00000000		0.00000000		0.00000000
Mg		2.53502102		0.00000000		2.41430583		0.00000000		0.00000000		0.00000000
Mg		0.00000000		2.41430583		2.41430583		0.00000000		0.00000000		0.00000000
Mg		2.53502102		2.41430583		0.00000000		0.00000000		0.00000000		0.00000000
O		0.45338606		2.84610213		4.39681586		 0.00060728		 0.00033344		-0.00038482
O		4.61665698		1.98251003		0.43179579		-0.00060728		-0.00033344		 0.00038482
O		2.08163597		1.98251003		1.98251003		-0.00060728		-0.00033344		-0.00038482
O		2.98840708		2.84610213		2.84610213		 0.00060728		 0.00033344		 0.00038482
O		4.61665698		0.43179579		2.84610213		-0.00060728		 0.00033344		 0.00038482
O		0.45338606		4.39681586		1.98251003		 0.00060728		-0.00033344		-0.00038482
O		2.98840708		4.39681586		0.43179579		 0.00060728		-0.00033344		 0.00038482
O		2.08163597		0.43179579		4.39681586		-0.00060728		 0.00033344		-0.00038482
