# total energy = -10069.0101616 eV

CRYSTAL
PRIMVEC
		5.19075789		0.00000000		0.00000000
		0.00000000		4.82861429		0.00000000
		0.00000000		0.00000000		4.82861429
PRIMECORD
   12 1
Mg		0.00000000		0.00000000		0.00000000		0.00000000		0.00000000		0.00000000
Mg		2.59537895		0.00000000		2.41430611		0.00000000		0.00000000		0.00000000
Mg		0.00000000		2.41430611		2.41430611		0.00000000		0.00000000		0.00000000
Mg		2.59537895		2.41430611		0.00000000		0.00000000		0.00000000		0.00000000
O		0.46418093		2.84610190		4.39681590		 0.00015291		 0.00002712		-0.00003207
O		4.72657800		1.98250980		0.43179579		-0.00015291		-0.00002712		 0.00003207
O		2.13119906		1.98250980		1.98250980		-0.00015291		-0.00002712		-0.00003207
O		3.05955988		2.84610190		2.84610190		 0.00015291		 0.00002712		 0.00003207
O		4.72657800		0.43179579		2.84610190		-0.00015291		 0.00002712		 0.00003207
O		0.46418093		4.39681590		1.98250980		 0.00015291		-0.00002712		-0.00003207
O		3.05955988		4.39681590		0.43179579		 0.00015291		-0.00002712		 0.00003207
O		2.13119906		0.43179579		4.39681590		-0.00015291		 0.00002712		-0.00003207
