# total energy = -10068.3861448 eV

CRYSTAL
PRIMVEC
		4.46646565		0.00000000		0.00000000
		0.00000000		4.82861115		0.00000000
		0.00000000		0.00000000		4.82861115
PRIMECORD
   12 1
Mg		0.00000000		0.00000000		0.00000000		0.00000000		-0.00000000		0.00000000
Mg		2.23323283		0.00000000		2.41430602		0.00000000		0.00000000		0.00000000
Mg		0.00000000		2.41430602		2.41430602		0.00000000		-0.00000000		-0.00000000
Mg		2.23323283		2.41430602		0.00000000		0.00000000		0.00000000		-0.00000000
O		0.39941101		2.84610159		4.39681559		-0.00005033		-0.00010550		-0.00001261
O		4.06705464		1.98251001		0.43179601		 0.00005033		 0.00010550		 0.00001261
O		1.83382181		1.98251001		1.98251001		 0.00005033		 0.00010550		-0.00001261
O		2.63264384		2.84610159		2.84610159		-0.00005033		-0.00010550		 0.00001261
O		4.06705464		0.43179601		2.84610159		 0.00005033		-0.00010550		 0.00001261
O		0.39941101		4.39681559		1.98251001		-0.00005033		 0.00010550		-0.00001261
O		2.63264384		4.39681559		0.43179601		-0.00005033		 0.00010550		 0.00001261
O		1.83382181		0.43179601		4.39681559		 0.00005033		-0.00010550		-0.00001261
