# total energy = -22467.7387229 eV	

CRYSTAL	
PRIMVEC	
		9.73969720		0.00000000		-0.77917382	
		0.00000000		8.91740476		0.00000000	
		-1.83939543		0.00000000		5.16511781	
PRIMCOORD
   40 1	
Mg		-0.45984788		8.09771331		1.29127799		 0.00000002		 0.00009705		-0.00000004	
Mg		-1.37954462		0.81968754		3.87383494		-0.00000002		-0.00009705		 0.00000004	
Mg		4.41000170		3.63901289		0.90169010		 0.00000001		 0.00010633		-0.00000002	
Mg		3.49030496		5.27838796		3.48424705		-0.00000001		-0.00010633		 0.00000002	
Ca		-0.45984788		2.68841789		1.29127799		-0.00000001		 0.00029174		-0.00000006	
Ca		-1.37954462		6.22898296		3.87383494		 0.00000001		-0.00029174		 0.00000006	
Ca		4.41000170		7.14711832		0.90169010		-0.00000003		 0.00027561		-0.00000007	
Ca		3.49030496		1.77028156		3.48424705		 0.00000003		-0.00027561		 0.00000007	
Si		2.36552072		0.83101289		0.96167803		-0.00034674		 0.00017648		-0.00050018	
Si		5.53478496		8.08638796		3.42425912		 0.00034674		-0.00017648		 0.00050018	
Si		6.45448170		0.83101289		0.84170314		 0.00034629		 0.00017687		 0.00050006	
Si		1.44582496		8.08638796		3.54423401		-0.00034629		-0.00017687		-0.00050006	
Si		7.23537225		5.28971332		0.57209014		-0.00055959		 0.00005706		-0.00057134	
Si		0.66493538		3.62768753		3.81384701		 0.00055959		-0.00005706		 0.00057134	
Si		1.58463212		5.28971332		1.23129103		 0.00055899		 0.00005762		 0.00057114	
Si		6.31567453		3.62768753		3.15464612		-0.00055899		-0.00005762		-0.00057114	
O		0.86438903		0.77492156		0.64269700		 0.00009125		 0.00011167		 0.00006006	
O		7.03591763		8.14247831		3.74324015		-0.00009125		-0.00011167		-0.00006006	
O		7.95561534		0.77492156		1.16068320		-0.00009095		 0.00011162		-0.00005993	
O		-0.05530771		8.14247831		3.22525297		 0.00009095		-0.00011162		 0.00005993	
O		5.73423860		5.23362199		0.25310911		 0.00023998		 0.00013275		 0.00010858	
O		2.16606805		3.68377789		4.13282804		-0.00023998		-0.00013275		-0.00010858	
O		3.08576479		5.23362199		1.55027109		-0.00023959		 0.00013271		-0.00010841	
O		4.81454187		3.68377789		2.83566509		 0.00023959		-0.00013271		 0.00010841	
O		2.93096182		2.23104398		1.36003034		 0.00016274		-0.00056540		-0.00026065	
O		4.96934483		6.68635589		3.02590583		-0.00016274		 0.00056540		 0.00026065	
O		5.88904157		2.23104398		0.44334986		-0.00016261		-0.00056575		 0.00026073	
O		2.01126508		6.68635589		3.94258729		 0.00016261		 0.00056575		-0.00026073	
O		7.80081238		6.68974539		0.97044245		 0.00022911		-0.00044950		-0.00023565	
O		0.09949525		2.22765644		3.41549372		-0.00022911		 0.00044950		 0.00023565	
O		1.01919102		6.68974539		0.83293774		-0.00022892		-0.00045000		 0.00023573	
O		6.88111466		2.22765644		3.55299941		 0.00022892		 0.00045000		-0.00023573	
O		1.58501709		0.15551917		4.86822762		-0.00012168		-0.00050031		-0.00001493	
O		6.31528859		8.76188071		-0.48229145		 0.00012168		 0.00050031		 0.00001493	
O		5.39559185		0.15551917		2.10026453		 0.00012168		-0.00050030		 0.00001492	
O		2.50471383		8.76188071		2.28567067		-0.00012168		 0.00050030		-0.00001492	
O		6.45486667		4.61421959		4.47863973		-0.00009588		-0.00050264		-0.00000745	
O		1.44543901		4.30318126		-0.09270258		 0.00009588		 0.00050264		 0.00000745	
O		0.52574227		4.61421959		2.48985339		 0.00009587		-0.00050270		 0.00000745	
O		7.37456438		4.30318126		1.89608278		-0.00009587		 0.00050270		-0.00000745	
