# total energy = -22469.5271779 eV	

CRYSTAL	
PRIMVEC	
		9.73970023		0.00000000		0.38958762	
		0.00000000		8.91740210		0.00000000	
		-1.23335946		0.00000000		4.99286829	
PRIMCOORD
   40 1	
Mg		-0.30834035		8.09771240		1.24821659		-0.00000001		 0.00049918		 0.00000003	
Mg		-0.92502009		0.81968775		3.74465073		 0.00000001		-0.00049918		-0.00000003	
Mg		4.56150976		3.63901330		1.44301137		 0.00000002		 0.00048129		-0.00000002	
Mg		3.94483003		5.27838783		3.93944454		-0.00000002		-0.00048129		 0.00000002	
Ca		-0.30834035		2.68841776		1.24821659		-0.00000002		-0.00010244		-0.00000004	
Ca		-0.92502009		6.22898337		3.74465073		 0.00000002		 0.00010244		 0.00000004	
Ca		4.56150976		7.14711783		1.44301137		 0.00000003		-0.00007490		 0.00000001	
Ca		3.94483003		1.77028232		3.93944454		-0.00000003		 0.00007490		-0.00000001	
Si		2.50452066		0.83101336		1.25665986		 0.00028747		 0.00004931		-0.00015968	
Si		6.00181913		8.08638777		4.12579605		-0.00028747		-0.00004931		 0.00015968	
Si		6.61849886		0.83101336		1.62936191		-0.00028709		 0.00004904		 0.00015990	
Si		1.88784191		8.08638777		3.75309401		 0.00028709		-0.00004904		-0.00015990	
Si		7.37437175		5.28971246		1.45145367		 0.00058337		 0.00021833		-0.00003170	
Si		1.13196901		3.62768769		3.93100224		-0.00058337		-0.00021833		 0.00003170	
Si		1.74864875		5.28971246		1.43456810		-0.00058359		 0.00021838		 0.00003164	
Si		6.75769202		3.62768769		3.94788782		 0.00058359		-0.00021838		-0.00003164	
O		0.95036063		0.77492241		0.75330053		 0.00005479		-0.00003367		-0.00011410	
O		7.55598014		8.14247774		4.62915538		-0.00005479		 0.00003367		 0.00011410	
O		8.17265987		0.77492241		2.13272124		-0.00005493		-0.00003359		 0.00011400	
O		0.33368090		8.14247774		3.24973468		 0.00005493		 0.00003359		-0.00011400	
O		5.82021075		5.23362151		0.94809532		-0.00012105		-0.00005361		-0.00016822	
O		2.68613002		3.68377767		4.43436060		 0.00012105		 0.00005361		 0.00016822	
O		3.30280975		5.23362151		1.93792743		 0.00012119		-0.00005361		 0.00016831	
O		5.20353102		3.68377767		3.44452849		-0.00012119		 0.00005361		-0.00016831	
O		3.12353492		2.23104415		1.72715163		 0.00044507		 0.00036143		-0.00002072	
O		5.38280585		6.68635600		3.65530525		-0.00044507		-0.00036143		 0.00002072	
O		5.99948558		2.23104415		1.15887013		-0.00044520		 0.00036170		 0.00002059	
O		2.50685519		6.68635600		4.22358578		 0.00044520		-0.00036170		-0.00002059	
O		7.99338503		6.68974520		1.92194642		 0.00033944		 0.00019551		-0.00007937	
O		0.51295476		2.22765593		3.46051047		-0.00033944		-0.00019551		 0.00007937	
O		1.12963546		6.68974520		0.96407632		-0.00033944		 0.00019548		 0.00007940	
O		7.37670530		2.22765593		4.41837959		 0.00033944		-0.00019548		-0.00007940	
O		2.18828192		0.15551923		5.10669069		-0.00009254		 0.00016949		 0.00017234	
O		6.31805885		8.76188093		0.27576522		 0.00009254		-0.00016949		-0.00017234	
O		5.70137912		0.15551923		2.77219937		 0.00009255		 0.00016946		-0.00017238	
O		2.80496165		8.76188093		2.61025654		-0.00009255		-0.00016946		 0.00017238	
O		7.05813204		4.61422028		5.30148450		-0.00013822		 0.00015978		 0.00015597	
O		1.44820873		4.30318085		0.08097141		 0.00013822		-0.00015978		-0.00015597	
O		0.83152900		4.61422028		2.57740458		 0.00013823		 0.00015978		-0.00015599	
O		7.67481177		4.30318085		2.80505133		-0.00013823		-0.00015978		 0.00015599	
