# total energy = -11146.7278225 eV

CRYSTAL
PRIMVEC
		7.44099980		0.00000000		0.00000000
		0.00000000		4.40999782		0.00000000
		0.00000000		0.00000000		8.29199718
PRIMECORD
   12 1
Ca		0.14547229		1.10250020		5.64411591		 0.00012587		0.00000000		-0.00011676
Ca		7.29552751		3.30749985		2.64788424		-0.00012587		0.00000000		 0.00011676
Ca		3.57502761		3.30749985		1.49811584		-0.00012587		0.00000000		-0.00011676
Ca		3.86597219		1.10250020		6.79388358		 0.00012587		0.00000000		 0.00011676
Si		2.01346014		1.10250020		3.19739464		-0.00060803		0.00000000		-0.00072120
Si		5.42753966		3.30749985		5.09460478		 0.00060803		0.00000000		 0.00072120
Si		1.70703976		3.30749985		7.34339471		 0.00060803		0.00000000		-0.00072120
Si		5.73396003		1.10250020		0.94860470		-0.00060803		0.00000000		 0.00072120
Mg		1.07254571		1.10250020		0.52919498		 0.00022147		0.00000000		-0.00042858
Mg		6.36845409		3.30749985		7.76280369		-0.00022147		-0.00000000		 0.00042858
Mg		2.64795419		3.30749985		4.67519505		-0.00022147		0.00000000		-0.00042858
Mg		4.79304561		1.10250020		3.61680361		 0.00022147		0.00000000		 0.00042858
