# total energy = -11146.5016527 eV

CRYSTAL
PRIMVEC
		7.44100028		0.29763971		0.00000000
		0.17640336		4.41000211		0.00000000
		0.00000000		0.00000000		8.29200054
PRIMECORD
   12 1
Ca		0.18957180		1.10831920		5.64411594		 0.00042836		-0.00080300		-0.00013090
Ca		7.42782812		3.59932113		2.64788385		-0.00042836		 0.00080300		 0.00013090
Ca		3.70732797		3.45050127		1.49811567		-0.00042836		 0.00080300		-0.00013090
Ca		3.91007194		1.25713906		6.79388412		 0.00042836		-0.00080300		 0.00013090
Si		2.05755963		1.18303818		3.19739507		-0.00007326		 0.00081648		-0.00056856
Si		5.55984029		3.52460066		5.09460473		 0.00007326		-0.00081648		 0.00056856
Si		1.83934015		3.37578081		7.34339534		 0.00007326		-0.00081648		-0.00056856
Si		5.77805977		1.33185804		0.94860520		-0.00007326		 0.00081648		 0.00056856
Mg		1.11664564		1.14540204		0.52919519		 0.00009757		-0.00013614		-0.00024962
Mg		6.50075428		3.56223830		7.76280386		-0.00009757		 0.00013614		 0.00024962
Mg		2.78025414		3.41341769		4.67519471		-0.00009757		 0.00013614		-0.00024962
Mg		4.83714578		1.29422189		3.61680434		 0.00009757		-0.00013614		 0.00024962
